MODEL 
REMARK VINA RESULT:    -7.080      0.000      0.000
REMARK INTER + INTRA:         -10.150
REMARK INTER:                  -7.911
REMARK INTRA:                  -2.239
REMARK UNBOUND:                -1.415
REMARK  Name = ZINC000074563263
REMARK                            x       y       z     vdW  Elec       q    Type
REMARK                         _______ _______ _______ _____ _____    ______ ____
ROOT
ATOM      1  C   LIG    1       15.506  74.837  33.264  0.00  0.00    +0.170 A 
ATOM      2  C   LIG    1       15.498  73.884  34.264  0.00  0.00    -0.020 A 
ATOM      3  N   LIG    1       16.797  73.688  34.642  0.00  0.00    -0.380 N 
ATOM      4  N   LIG    1       17.602  74.530  33.865  0.00  0.00    -0.280 NA
ATOM      5  C   LIG    1       17.264  72.762  35.676  0.00  0.00    +0.340 C 
ATOM      6  C   LIG    1       16.839  75.206  33.045  0.00  0.00    +0.110 A 
ENDROOT
BRANCH   2   7
ATOM      7  C   LIG    1       14.308  73.206  34.820  0.00  0.00    +0.040 A 
ATOM      8  C   LIG    1       13.834  73.547  36.087  0.00  0.00    +0.050 A 
ATOM      9  C   LIG    1       12.723  72.910  36.600  0.00  0.00    -0.010 A 
ATOM     10  C   LIG    1       12.079  71.934  35.861  0.00  0.00    -0.030 A 
ATOM     11  C   LIG    1       12.544  71.590  34.604  0.00  0.00    -0.020 A 
ATOM     12  C   LIG    1       13.650  72.224  34.077  0.00  0.00    -0.020 A 
ENDBRANCH   2   7
BRANCH   1  13
ATOM     13  N   LIG    1       14.384  75.341  32.588  0.00  0.00    -1.070 NA
BRANCH  13  14
ATOM     14  S   LIG    1       13.437  76.498  33.299  0.00  0.00    +2.600 S 
ATOM     15  O   LIG    1       14.115  76.898  34.482  0.00  0.00    -1.040 OA
ATOM     16  O   LIG    1       13.070  77.405  32.268  0.00  0.00    -1.040 OA
BRANCH  14  21
ATOM     17  C   LIG    1        8.348  73.791  35.083  0.00  0.00    +0.090 C 
ATOM     18  C   LIG    1        9.620  74.467  34.638  0.00  0.00    -0.060 A 
ATOM     19  C   LIG    1       10.212  74.106  33.442  0.00  0.00    -0.030 A 
ATOM     20  C   LIG    1       11.378  74.727  33.033  0.00  0.00    +0.120 A 
ATOM     21  C   LIG    1       11.950  75.708  33.820  0.00  0.00    -0.610 A 
ATOM     22  C   LIG    1       11.358  76.070  35.015  0.00  0.00    +0.120 A 
ATOM     23  C   LIG    1       10.190  75.452  35.421  0.00  0.00    -0.030 A 
ENDBRANCH  14  21
ENDBRANCH  13  14
ENDBRANCH   1  13
TORSDOF 4
ENDMDL
MODEL 
REMARK VINA RESULT:    -7.091      0.000      0.000
REMARK INTER + INTRA:         -10.040
REMARK INTER:                  -8.512
REMARK INTRA:                  -1.528
REMARK UNBOUND:                -0.877
REMARK  Name = ZINC000483109850
REMARK                            x       y       z     vdW  Elec       q    Type
REMARK                         _______ _______ _______ _____ _____    ______ ____
ROOT
ATOM      1  C   LIG    1       15.060  73.187  33.814  0.00  0.00    +0.020 C 
ENDROOT
BRANCH   1   2
ATOM      2  C   LIG    1       14.956  72.777  32.344  0.00  0.00    +0.270 C 
BRANCH   2   4
ATOM      3  C   LIG    1       13.358  71.127  31.650  0.00  0.00    +0.320 C 
ATOM      4  N   LIG    1       13.547  72.541  32.001  0.00  0.00    -0.380 N 
ATOM      5  H   LIG    1       13.290  73.119  31.214  0.00  0.00    +0.420 HD
BRANCH   4   6
ATOM      6  C   LIG    1       12.700  72.877  33.153  0.00  0.00    +0.160 C 
ATOM      7  C   LIG    1       11.933  71.628  33.652  0.00  0.00    +0.040 C 
ATOM      8  C   LIG    1       10.704  72.207  34.383  0.00  0.00    +0.050 C 
ATOM      9  C   LIG    1       10.465  73.611  33.800  0.00  0.00    -0.060 C 
ATOM     10  C   LIG    1       10.583  74.664  34.903  0.00  0.00    +0.040 C 
ATOM     11  C   LIG    1        9.081  73.681  33.153  0.00  0.00    +0.040 C 
ATOM     12  C   LIG    1       11.561  73.839  32.735  0.00  0.00    +0.060 C 
ENDBRANCH   4   6
ENDBRANCH   2   4
ENDBRANCH   1   2
BRANCH   1  13
ATOM     13  C   LIG    1       15.728  74.559  33.914  0.00  0.00    +0.340 C 
BRANCH  13  14
ATOM     14  N   LIG    1       14.700  75.592  34.069  0.00  0.00    -0.580 N 
ATOM     15  C   LIG    1       14.181  75.978  35.249  0.00  0.00    +0.580 C 
ATOM     16  C   LIG    1       13.178  77.035  34.998  0.00  0.00    -0.150 A 
ATOM     17  C   LIG    1       12.345  77.789  35.808  0.00  0.00    +0.110 A 
ATOM     18  C   LIG    1       11.497  78.726  35.238  0.00  0.00    +0.060 A 
ATOM     19  C   LIG    1       11.478  78.913  33.869  0.00  0.00    +0.060 A 
ATOM     20  C   LIG    1       12.306  78.165  33.047  0.00  0.00    +0.110 A 
ATOM     21  C   LIG    1       13.159  77.225  33.602  0.00  0.00    -0.150 A 
ATOM     22  O   LIG    1       14.487  75.534  36.337  0.00  0.00    -0.460 OA
ATOM     23  C   LIG    1       14.154  76.281  33.051  0.00  0.00    +0.580 C 
ATOM     24  O   LIG    1       14.432  76.149  31.876  0.00  0.00    -0.460 OA
ENDBRANCH  13  14
ENDBRANCH   1  13
TORSDOF 5
ENDMDL
MODEL 
REMARK VINA RESULT:    -6.789      0.000      0.000
REMARK INTER + INTRA:          -9.461
REMARK INTER:                  -8.631
REMARK INTRA:                  -0.830
REMARK UNBOUND:                -0.688
REMARK  Name = ZINC001104480215
REMARK                            x       y       z     vdW  Elec       q    Type
REMARK                         _______ _______ _______ _____ _____    ______ ____
ROOT
ATOM      1  C   LIG    1       15.015  72.795  32.715  0.00  0.00    +0.290 C 
ENDROOT
BRANCH   1   3
ATOM      2  C   LIG    1       13.928  72.900  30.468  0.00  0.00    +0.060 C 
ATOM      3  C   LIG    1       14.631  73.716  31.554  0.00  0.00    +0.230 C 
BRANCH   3   4
ATOM      4  N   LIG    1       13.731  74.765  32.039  0.00  0.00    -0.600 N 
ATOM      5  C   LIG    1       14.234  75.938  32.472  0.00  0.00    +0.600 C 
ATOM      6  O   LIG    1       15.425  76.163  32.372  0.00  0.00    -0.530 OA
ATOM      7  C   LIG    1       12.284  74.539  32.052  0.00  0.00    +0.300 C 
BRANCH   5   8
ATOM      8  C   LIG    1       13.340  76.950  33.069  0.00  0.00    -0.020 A 
ATOM      9  N   LIG    1       12.733  77.933  32.434  0.00  0.00    -0.250 NA
ATOM     10  N   LIG    1       12.032  78.625  33.258  0.00  0.00    -0.380 N 
ATOM     11  H   LIG    1       11.499  79.399  33.019  0.00  0.00    +0.450 HD
ATOM     12  C   LIG    1       12.144  78.118  34.505  0.00  0.00    +0.180 A 
ATOM     13  C   LIG    1       12.964  77.045  34.430  0.00  0.00    -0.020 A 
ENDBRANCH   5   8
ENDBRANCH   3   4
ENDBRANCH   1   3
BRANCH   1  14
ATOM     14  N   LIG    1       16.367  73.122  33.172  0.00  0.00    -0.680 N 
ATOM     15  H   LIG    1       17.081  73.247  32.526  0.00  0.00    +0.420 HD
BRANCH  14  16
ATOM     16  C   LIG    1       16.628  73.252  34.521  0.00  0.00    +0.390 A 
ATOM     17  N   LIG    1       17.477  72.538  35.177  0.00  0.00    -0.550 NA
ATOM     18  C   LIG    1       17.622  72.783  36.495  0.00  0.00    +0.160 A 
ATOM     19  C   LIG    1       18.474  72.148  37.423  0.00  0.00    +0.040 A 
ATOM     20  C   LIG    1       18.484  72.538  38.739  0.00  0.00    +0.070 A 
ATOM     21  C   LIG    1       17.658  73.561  39.179  0.00  0.00    -0.010 A 
ATOM     22  C   LIG    1       16.817  74.197  38.289  0.00  0.00    +0.160 A 
ATOM     23  F   LIG    1       16.012  75.194  38.719  0.00  0.00    -0.130 F 
ATOM     24  C   LIG    1       16.794  73.814  36.950  0.00  0.00    -0.240 A 
ATOM     25  S   LIG    1       15.858  74.419  35.586  0.00  0.00    +0.060 S 
ENDBRANCH  14  16
ENDBRANCH   1  14
TORSDOF 5
ENDMDL
MODEL 
REMARK VINA RESULT:    -5.923      0.000      0.000
REMARK INTER + INTRA:          -7.794
REMARK INTER:                  -7.175
REMARK INTRA:                  -0.619
REMARK UNBOUND:                -0.486
REMARK  Name = ZINC000429571841
REMARK                            x       y       z     vdW  Elec       q    Type
REMARK                         _______ _______ _______ _____ _____    ______ ____
ROOT
ATOM      1  C   LIG    1        8.973  73.719  33.474  0.00  0.00    +0.070 C 
ATOM      2  C   LIG    1       10.483  73.593  33.261  0.00  0.00    -0.370 C 
ATOM      3  C   LIG    1       10.732  73.117  31.835  0.00  0.00    +0.100 C 
ATOM      4  C   LIG    1       12.030  73.737  31.433  0.00  0.00    +0.170 C 
ATOM      5  N   LIG    1       13.137  72.775  31.583  0.00  0.00    -0.560 NA
ATOM      6  C   LIG    1       13.176  71.914  32.799  0.00  0.00    +0.250 C 
ATOM      7  C   LIG    1       12.941  72.591  34.120  0.00  0.00    -0.260 C 
ATOM      8  S   LIG    1       11.130  72.540  34.498  0.00  0.00    +1.270 S 
ATOM      9  O   LIG    1       10.896  73.116  35.775  0.00  0.00    -0.850 OA
ENDROOT
BRANCH   5  10
ATOM     10  C   LIG    1       14.435  73.425  31.356  0.00  0.00    +0.170 C 
BRANCH  10  11
ATOM     11  C   LIG    1       14.258  74.944  31.395  0.00  0.00    +0.030 C 
BRANCH  11  12
ATOM     12  C   LIG    1       14.858  75.495  32.690  0.00  0.00    +0.070 C 
BRANCH  12  13
ATOM     13  C   LIG    1       13.873  76.433  33.339  0.00  0.00    -0.040 A 
ATOM     14  C   LIG    1       13.146  77.335  32.580  0.00  0.00    -0.040 A 
ATOM     15  C   LIG    1       12.252  78.180  33.210  0.00  0.00    +0.260 A 
ATOM     16  N   LIG    1       12.089  78.135  34.518  0.00  0.00    -0.490 NA
ATOM     17  C   LIG    1       12.764  77.290  35.272  0.00  0.00    +0.260 A 
ATOM     18  C   LIG    1       13.671  76.411  34.710  0.00  0.00    -0.040 A 
ENDBRANCH  12  13
ENDBRANCH  11  12
ENDBRANCH  10  11
ENDBRANCH   5  10
TORSDOF 4
ENDMDL
MODEL 
REMARK VINA RESULT:    -7.501      0.000      0.000
REMARK INTER + INTRA:         -10.612
REMARK INTER:                  -9.973
REMARK INTRA:                  -0.639
REMARK UNBOUND:                -0.700
REMARK  Name = ZINC001044032361
REMARK                            x       y       z     vdW  Elec       q    Type
REMARK                         _______ _______ _______ _____ _____    ______ ____
ROOT
ATOM      1  C   LIG    1       13.251  71.984  31.857  0.00  0.00    +0.090 C 
ATOM      2  C   LIG    1       14.169  73.021  31.185  0.00  0.00    +0.290 C 
ATOM      3  N   LIG    1       14.904  73.052  32.465  0.00  0.00    -0.640 N 
ATOM      4  C   LIG    1       16.165  73.368  32.823  0.00  0.00    +0.620 C 
ATOM      5  O   LIG    1       16.966  73.723  31.979  0.00  0.00    -0.520 OA
ATOM      6  C   LIG    1       13.704  72.598  33.195  0.00  0.00    +0.320 C 
ENDROOT
BRANCH   4   7
ATOM      7  C   LIG    1       16.569  73.285  34.230  0.00  0.00    -0.050 A 
ATOM      8  C   LIG    1       16.417  74.247  35.167  0.00  0.00    +0.300 A 
ATOM      9  N   LIG    1       16.924  73.769  36.347  0.00  0.00    -0.520 N 
ATOM     10  C   LIG    1       17.388  72.523  36.144  0.00  0.00    +0.650 A 
ATOM     11  O   LIG    1       17.903  71.811  36.986  0.00  0.00    -0.560 OA
ATOM     12  C   LIG    1       16.955  74.497  37.618  0.00  0.00    +0.350 C 
ATOM     13  N   LIG    1       17.180  72.192  34.854  0.00  0.00    -0.630 N 
ATOM     14  H   LIG    1       17.416  71.351  34.434  0.00  0.00    +0.430 HD
ENDBRANCH   4   7
BRANCH   1  15
ATOM     15  O   LIG    1       13.675  70.631  31.672  0.00  0.00    -0.520 OA
ATOM     16  H   LIG    1       13.907  70.177  32.493  0.00  0.00    +0.380 HD
ENDBRANCH   1  15
BRANCH   1  17
ATOM     17  C   LIG    1       11.766  72.190  31.557  0.00  0.00    +0.280 C 
BRANCH  17  19
ATOM     18  C   LIG    1        9.905  73.195  32.766  0.00  0.00    +0.610 C 
ATOM     19  N   LIG    1       11.052  72.488  32.800  0.00  0.00    -0.720 N 
ATOM     20  H   LIG    1       11.405  72.177  33.649  0.00  0.00    +0.410 HD
ATOM     21  O   LIG    1        9.462  73.585  31.702  0.00  0.00    -0.540 OA
BRANCH  18  25
ATOM     22  N   LIG    1        8.561  73.512  36.109  0.00  0.00    -0.450 N 
ATOM     23  C   LIG    1        7.766  74.359  35.402  0.00  0.00    +0.400 A 
ATOM     24  N   LIG    1        8.139  74.349  34.155  0.00  0.00    -0.470 NA
ATOM     25  C   LIG    1        9.186  73.495  34.017  0.00  0.00    -0.070 A 
ATOM     26  C   LIG    1        9.456  72.972  35.248  0.00  0.00    +0.230 A 
BRANCH  22  28
ATOM     27  C   LIG    1        7.052  73.548  38.032  0.00  0.00    +0.050 C 
ATOM     28  C   LIG    1        8.469  73.236  37.544  0.00  0.00    +0.300 C 
ENDBRANCH  22  28
ENDBRANCH  18  25
ENDBRANCH  17  19
ENDBRANCH   1  17
TORSDOF 6
ENDMDL
MODEL 
REMARK VINA RESULT:    -6.719      0.000      0.000
REMARK INTER + INTRA:          -8.852
REMARK INTER:                  -8.515
REMARK INTRA:                  -0.337
REMARK UNBOUND:                -0.169
REMARK  Name = ZINC000347321470
REMARK                            x       y       z     vdW  Elec       q    Type
REMARK                         _______ _______ _______ _____ _____    ______ ____
ROOT
ATOM      1  C   LIG    1       13.827  76.041  33.718  0.00  0.00    +0.580 C 
ATOM      2  N   LIG    1       13.337  74.851  33.319  0.00  0.00    -0.600 N 
ATOM      3  C   LIG    1       11.914  74.540  33.095  0.00  0.00    +0.270 C 
ATOM      4  C   LIG    1       11.919  73.352  32.101  0.00  0.00    +0.190 C 
ATOM      5  C   LIG    1       13.151  72.544  32.588  0.00  0.00    +0.060 C 
ATOM      6  F   LIG    1       12.098  73.797  30.787  0.00  0.00    -0.190 F 
ATOM      7  C   LIG    1       14.133  73.649  33.030  0.00  0.00    +0.230 C 
ATOM      8  O   LIG    1       15.029  76.218  33.765  0.00  0.00    -0.510 OA
ENDROOT
BRANCH   1  13
ATOM      9  C   LIG    1       11.597  78.274  35.763  0.00  0.00    -0.100 A 
ATOM     10  C   LIG    1       11.173  79.182  34.799  0.00  0.00    +0.020 A 
ATOM     11  C   LIG    1       11.611  79.067  33.494  0.00  0.00    +0.040 A 
ATOM     12  C   LIG    1       12.472  78.050  33.138  0.00  0.00    +0.080 A 
ATOM     13  C   LIG    1       12.905  77.132  34.097  0.00  0.00    -0.110 A 
ATOM     14  C   LIG    1       12.468  77.251  35.416  0.00  0.00    +0.060 A 
BRANCH   9  15
ATOM     15  S   LIG    1       11.035  78.428  37.426  0.00  0.00    -0.060 S 
BRANCH  15  16
ATOM     16  C   LIG    1        9.240  78.605  37.237  0.00  0.00    +0.260 C 
BRANCH  16  18
ATOM     17  N   LIG    1        8.263  76.446  36.150  0.00  0.00    -0.390 NA
ATOM     18  C   LIG    1        8.689  77.386  36.624  0.00  0.00    +0.210 C 
ENDBRANCH  16  18
ENDBRANCH  15  16
ENDBRANCH   9  15
ENDBRANCH   1  13
BRANCH   7  19
ATOM     19  C   LIG    1       15.120  73.929  31.926  0.00  0.00    +0.510 C 
ATOM     20  O   LIG    1       16.192  73.361  31.913  0.00  0.00    -0.510 OA
ATOM     21  N   LIG    1       14.813  74.811  30.954  0.00  0.00    -0.860 N 
ATOM     22  H   LIG    1       15.448  74.991  30.244  0.00  0.00    +0.410 HD
ATOM     23  H   LIG    1       13.956  75.265  30.965  0.00  0.00    +0.400 HD
ENDBRANCH   7  19
TORSDOF 5
ENDMDL
MODEL 
REMARK VINA RESULT:    -5.473      0.000      0.000
REMARK INTER + INTRA:          -9.270
REMARK INTER:                  -8.051
REMARK INTRA:                  -1.219
REMARK UNBOUND:                -0.597
REMARK  Name = ZINC000362128171
REMARK                            x       y       z     vdW  Elec       q    Type
REMARK                         _______ _______ _______ _____ _____    ______ ____
ROOT
ATOM      1  C   LIG    1       14.726  75.449  33.998  0.00  0.00    +0.550 C 
ATOM      2  N   LIG    1       13.839  76.451  33.836  0.00  0.00    -0.620 N 
ATOM      3  C   LIG    1       13.467  77.069  32.554  0.00  0.00    +0.230 C 
ATOM      4  C   LIG    1       12.404  78.146  32.855  0.00  0.00    +0.050 C 
ATOM      5  C   LIG    1       11.822  77.688  34.219  0.00  0.00    +0.000 C 
ATOM      6  C   LIG    1       13.075  77.105  34.914  0.00  0.00    +0.280 C 
ATOM      7  O   LIG    1       14.952  75.012  35.106  0.00  0.00    -0.510 OA
ENDROOT
BRANCH   1   8
ATOM      8  C   LIG    1       15.439  74.873  32.801  0.00  0.00    +0.020 C 
ATOM      9  C   LIG    1       16.934  74.767  33.100  0.00  0.00    +0.080 C 
BRANCH   8  10
ATOM     10  S   LIG    1       14.774  73.224  32.438  0.00  0.00    -0.190 S 
BRANCH  10  11
ATOM     11  C   LIG    1       13.843  73.487  30.905  0.00  0.00    +0.060 C 
BRANCH  11  12
ATOM     12  C   LIG    1       12.365  73.695  31.234  0.00  0.00    +0.040 C 
BRANCH  12  14
ATOM     13  C   LIG    1       11.068  74.138  33.324  0.00  0.00    +0.030 C 
ATOM     14  C   LIG    1       12.085  73.208  32.658  0.00  0.00    +0.000 C 
ENDBRANCH  12  14
ENDBRANCH  11  12
ENDBRANCH  10  11
ENDBRANCH   8  10
ENDBRANCH   1   8
BRANCH   5  15
ATOM     15  C   LIG    1       11.259  78.876  35.001  0.00  0.00    +0.180 C 
BRANCH  15  16
ATOM     16  O   LIG    1        9.854  78.980  34.764  0.00  0.00    -0.380 OA
BRANCH  16  17
ATOM     17  C   LIG    1        9.097  79.364  35.915  0.00  0.00    +0.190 C 
BRANCH  17  18
ATOM     18  C   LIG    1        8.834  78.134  36.785  0.00  0.00    +0.190 C 
BRANCH  18  19
ATOM     19  O   LIG    1        8.456  77.034  35.953  0.00  0.00    -0.380 OA
ATOM     20  C   LIG    1        9.172  75.827  36.224  0.00  0.00    +0.200 C 
ENDBRANCH  18  19
ENDBRANCH  17  18
ENDBRANCH  16  17
ENDBRANCH  15  16
ENDBRANCH   5  15
TORSDOF 10
ENDMDL
MODEL 
REMARK VINA RESULT:    -6.928      0.000      0.000
REMARK INTER + INTRA:          -8.971
REMARK INTER:                  -8.751
REMARK INTRA:                  -0.220
REMARK UNBOUND:                -0.423
REMARK  Name = ZINC001027551546
REMARK                            x       y       z     vdW  Elec       q    Type
REMARK                         _______ _______ _______ _____ _____    ______ ____
ROOT
ATOM      1  C   LIG    1       13.908  75.025  34.091  0.00  0.00    +0.150 C 
ATOM      2  C   LIG    1       13.467  73.569  33.925  0.00  0.00    +0.050 C 
ATOM      3  C   LIG    1       14.699  72.661  33.891  0.00  0.00    +0.050 C 
ATOM      4  C   LIG    1       15.575  73.041  32.692  0.00  0.00    +0.290 C 
ATOM      5  N   LIG    1       15.884  74.475  32.768  0.00  0.00    -0.580 N 
ATOM      6  C   LIG    1       17.160  74.906  32.722  0.00  0.00    +0.520 C 
ATOM      7  O   LIG    1       17.397  76.094  32.655  0.00  0.00    -0.500 OA
ATOM      8  C   LIG    1       14.776  75.432  32.896  0.00  0.00    +0.310 C 
ENDROOT
BRANCH   6   9
ATOM      9  C   LIG    1       18.283  73.920  32.751  0.00  0.00    +0.520 C 
ATOM     10  O   LIG    1       19.037  73.831  31.805  0.00  0.00    -0.500 OA
ATOM     11  N   LIG    1       18.456  73.128  33.829  0.00  0.00    -0.810 N 
ATOM     12  H   LIG    1       19.185  72.488  33.847  0.00  0.00    +0.420 HD
ATOM     13  H   LIG    1       17.853  73.199  34.584  0.00  0.00    +0.420 HD
ENDBRANCH   6   9
BRANCH   1  14
ATOM     14  N   LIG    1       12.724  75.892  34.155  0.00  0.00    -0.380 N 
ATOM     15  C   LIG    1       13.080  77.241  33.695  0.00  0.00    +0.340 C 
ATOM     16  H   LIG    1       12.392  75.938  35.107  0.00  0.00    +0.420 HD
BRANCH  14  17
ATOM     17  C   LIG    1       11.669  75.342  33.294  0.00  0.00    +0.330 C 
BRANCH  17  24
ATOM     18  C   LIG    1        9.863  73.253  32.442  0.00  0.00    +0.110 C 
ATOM     19  C   LIG    1        9.599  74.010  33.719  0.00  0.00    -0.110 A 
ATOM     20  C   LIG    1        8.491  73.709  34.496  0.00  0.00    +0.080 A 
ATOM     21  C   LIG    1        8.288  74.431  35.662  0.00  0.00    +0.020 A 
ATOM     22  C   LIG    1        9.191  75.418  36.009  0.00  0.00    +0.270 A 
ATOM     23  N   LIG    1       10.234  75.677  35.245  0.00  0.00    -0.460 NA
ATOM     24  C   LIG    1       10.461  75.007  34.132  0.00  0.00    +0.050 A 
ENDBRANCH  17  24
ENDBRANCH  14  17
ENDBRANCH   1  14
TORSDOF 4
ENDMDL
MODEL 
REMARK VINA RESULT:    -6.901      0.000      0.000
REMARK INTER + INTRA:          -9.572
REMARK INTER:                  -8.906
REMARK INTRA:                  -0.666
REMARK UNBOUND:                -0.654
REMARK  Name = ZINC001277334264
REMARK                            x       y       z     vdW  Elec       q    Type
REMARK                         _______ _______ _______ _____ _____    ______ ____
ROOT
ATOM      1  N   LIG    1       11.727  74.596  35.695  0.00  0.00    -0.400 N 
ATOM      2  C   LIG    1       11.221  74.469  37.087  0.00  0.00    +0.280 C 
ATOM      3  C   LIG    1       11.041  75.926  37.572  0.00  0.00    +0.110 C 
ATOM      4  C   LIG    1       10.871  76.744  36.288  0.00  0.00    -0.120 C 
ATOM      5  C   LIG    1       11.958  77.824  36.173  0.00  0.00    +0.080 C 
ATOM      6  C   LIG    1       11.217  79.068  36.717  0.00  0.00    +0.280 C 
ATOM      7  N   LIG    1        9.789  78.799  36.501  0.00  0.00    -0.610 N 
ATOM      8  C   LIG    1        9.567  77.490  36.271  0.00  0.00    +0.530 C 
ATOM      9  O   LIG    1        8.479  76.990  36.079  0.00  0.00    -0.500 OA
ATOM     10  C   LIG    1       10.969  75.745  35.128  0.00  0.00    +0.320 C 
ATOM     11  H   LIG    1       12.717  74.793  35.696  0.00  0.00    +0.430 HD
ENDROOT
BRANCH   1  12
ATOM     12  C   LIG    1       11.448  73.372  34.934  0.00  0.00    +0.350 C 
BRANCH  12  15
ATOM     13  C   LIG    1       14.210  73.450  32.348  0.00  0.00    -0.050 A 
ATOM     14  C   LIG    1       13.544  73.398  33.575  0.00  0.00    +0.180 A 
ATOM     15  C   LIG    1       12.167  73.428  33.611  0.00  0.00    -0.200 A 
ATOM     16  C   LIG    1       11.441  73.511  32.432  0.00  0.00    +0.180 A 
ATOM     17  C   LIG    1       12.093  73.563  31.212  0.00  0.00    +0.000 A 
ATOM     18  F   LIG    1       10.091  73.540  32.475  0.00  0.00    -0.120 F 
ATOM     19  C   LIG    1       13.474  73.538  31.162  0.00  0.00    +0.210 A 
ATOM     20  F   LIG    1       14.110  73.590  29.971  0.00  0.00    -0.100 F 
BRANCH  13  22
ATOM     21  N   LIG    1       16.777  73.396  32.271  0.00  0.00    -0.350 NA
ATOM     22  C   LIG    1       15.642  73.420  32.306  0.00  0.00    +0.220 C 
ENDBRANCH  13  22
ENDBRANCH  12  15
ENDBRANCH   1  12
BRANCH   7  23
ATOM     23  C   LIG    1        8.741  79.823  36.532  0.00  0.00    +0.320 C 
BRANCH  23  24
ATOM     24  C   LIG    1        8.599  80.451  35.145  0.00  0.00    +0.370 C 
ATOM     25  F   LIG    1        9.762  81.166  34.837  0.00  0.00    -0.200 F 
ATOM     26  F   LIG    1        7.502  81.318  35.135  0.00  0.00    -0.200 F 
ENDBRANCH  23  24
ENDBRANCH   7  23
TORSDOF 5
ENDMDL
MODEL 
REMARK VINA RESULT:    -8.660      0.000      0.000
REMARK INTER + INTRA:         -10.307
REMARK INTER:                  -9.568
REMARK INTRA:                  -0.739
REMARK UNBOUND:                 0.631
REMARK  Name = ZINC001203665201
REMARK                            x       y       z     vdW  Elec       q    Type
REMARK                         _______ _______ _______ _____ _____    ______ ____
ROOT
ATOM      1  C   LIG    1       11.555  79.377  35.144  0.00  0.00    +0.040 C 
ATOM      2  C   LIG    1       11.757  78.075  35.924  0.00  0.00    +0.070 C 
ATOM      3  C   LIG    1       12.926  77.298  35.315  0.00  0.00    +0.250 C 
ATOM      4  N   LIG    1       12.633  76.989  33.910  0.00  0.00    -0.380 N 
ATOM      5  C   LIG    1       12.509  78.232  33.141  0.00  0.00    +0.250 C 
ATOM      6  H   LIG    1       11.769  76.472  33.854  0.00  0.00    +0.430 HD
ATOM      7  C   LIG    1       11.324  79.045  33.666  0.00  0.00    +0.070 C 
ENDROOT
BRANCH   1  11
ATOM      8  C   LIG    1        8.156  81.455  36.687  0.00  0.00    -0.650 A 
ATOM      9  C   LIG    1        9.314  81.370  37.438  0.00  0.00    +0.130 A 
ATOM     10  C   LIG    1       10.413  80.698  36.939  0.00  0.00    +0.010 A 
ATOM     11  C   LIG    1       10.356  80.110  35.688  0.00  0.00    -0.040 A 
ATOM     12  C   LIG    1        9.197  80.193  34.938  0.00  0.00    -0.010 A 
ATOM     13  C   LIG    1        8.096  80.862  35.440  0.00  0.00    +0.130 A 
BRANCH   8  15
ATOM     14  C   LIG    1        6.871  82.098  39.121  0.00  0.00    -0.250 C 
ATOM     15  S   LIG    1        6.754  82.311  37.324  0.00  0.00    +2.500 S 
ATOM     16  O   LIG    1        6.980  83.668  36.966  0.00  0.00    -0.930 OA
ATOM     17  O   LIG    1        5.641  81.594  36.808  0.00  0.00    -0.930 OA
ENDBRANCH   8  15
ENDBRANCH   1  11
BRANCH   4  18
ATOM     18  C   LIG    1       13.724  76.178  33.352  0.00  0.00    +0.330 C 
BRANCH  18  19
ATOM     19  C   LIG    1       13.144  75.038  32.554  0.00  0.00    -0.180 A 
ATOM     20  C   LIG    1       11.852  74.615  32.793  0.00  0.00    +0.080 A 
ATOM     21  C   LIG    1       11.319  73.569  32.059  0.00  0.00    -0.040 A 
ATOM     22  C   LIG    1       12.079  72.945  31.087  0.00  0.00    +0.090 A 
ATOM     23  C   LIG    1       13.373  73.365  30.847  0.00  0.00    +0.030 A 
ATOM     24 CL   LIG    1        9.693  73.040  32.361  0.00  0.00    -0.040 Cl
ATOM     25  C   LIG    1       13.907  74.417  31.575  0.00  0.00    +0.130 A 
BRANCH  25  26
ATOM     26  O   LIG    1       15.180  74.832  31.340  0.00  0.00    -0.500 OA
ATOM     27  H   LIG    1       15.289  75.314  30.509  0.00  0.00    +0.410 HD
ENDBRANCH  25  26
ENDBRANCH  18  19
ENDBRANCH   4  18
TORSDOF 5
ENDMDL
MODEL 
REMARK VINA RESULT:    -6.671      0.000      0.000
REMARK INTER + INTRA:          -9.223
REMARK INTER:                  -8.423
REMARK INTRA:                  -0.800
REMARK UNBOUND:                -0.603
REMARK  Name = ZINC000554492315
REMARK                            x       y       z     vdW  Elec       q    Type
REMARK                         _______ _______ _______ _____ _____    ______ ____
ROOT
ATOM      1  C   LIG    1       15.599  74.701  32.974  0.00  0.00    +0.500 C 
ATOM      2  O   LIG    1       16.520  74.890  32.198  0.00  0.00    -0.560 OA
ENDROOT
BRANCH   1   7
ATOM      3  C   LIG    1       17.263  73.885  37.120  0.00  0.00    +0.290 A 
ATOM      4  N   LIG    1       16.561  74.715  36.426  0.00  0.00    -0.590 NA
ATOM      5  C   LIG    1       16.376  74.423  35.136  0.00  0.00    +0.370 A 
ATOM      6  S   LIG    1       17.214  72.939  34.885  0.00  0.00    +0.090 S 
ATOM      7  N   LIG    1       15.688  75.132  34.232  0.00  0.00    -0.640 NA
ATOM      8  N   LIG    1       17.750  72.812  36.492  0.00  0.00    -0.590 NA
BRANCH   3  10
ATOM      9  C   LIG    1       17.847  75.602  38.812  0.00  0.00    +0.050 C 
ATOM     10  C   LIG    1       17.529  74.122  38.584  0.00  0.00    +0.020 C 
ATOM     11  C   LIG    1       16.292  73.735  39.397  0.00  0.00    +0.030 C 
ATOM     12  C   LIG    1       18.719  73.270  39.030  0.00  0.00    +0.030 C 
ENDBRANCH   3  10
ENDBRANCH   1   7
BRANCH   1  13
ATOM     13  C   LIG    1       14.382  73.991  32.520  0.00  0.00    -0.120 A 
ATOM     14  C   LIG    1       14.383  72.601  32.407  0.00  0.00    +0.120 A 
ATOM     15  C   LIG    1       13.246  71.944  31.983  0.00  0.00    -0.060 A 
ATOM     16  C   LIG    1       12.103  72.660  31.669  0.00  0.00    +0.050 A 
ATOM     17  C   LIG    1       12.090  74.037  31.777  0.00  0.00    -0.100 A 
ATOM     18  C   LIG    1       13.222  74.711  32.207  0.00  0.00    +0.170 A 
BRANCH  18  19
ATOM     19  O   LIG    1       13.211  76.064  32.314  0.00  0.00    -0.240 OA
BRANCH  19  20
ATOM     20  C   LIG    1       12.311  76.632  33.268  0.00  0.00    +0.120 C 
ATOM     21  C   LIG    1       12.920  77.353  34.472  0.00  0.00    +0.010 C 
ATOM     22  C   LIG    1       12.248  78.158  33.358  0.00  0.00    +0.040 C 
ENDBRANCH  19  20
ENDBRANCH  18  19
ENDBRANCH   1  13
TORSDOF 5
ENDMDL
MODEL 
REMARK VINA RESULT:    -5.891      0.000      0.000
REMARK INTER + INTRA:          -9.769
REMARK INTER:                  -8.096
REMARK INTRA:                  -1.673
REMARK UNBOUND:                -1.812
REMARK  Name = ZINC000529603612
REMARK                            x       y       z     vdW  Elec       q    Type
REMARK                         _______ _______ _______ _____ _____    ______ ____
ROOT
ATOM      1  C   LIG    1       14.168  74.631  31.567  0.00  0.00    +0.510 C 
ATOM      2  N   LIG    1       12.837  74.473  31.429  0.00  0.00    -0.740 N 
ATOM      3  H   LIG    1       12.233  75.183  31.697  0.00  0.00    +0.400 HD
ATOM      4  O   LIG    1       14.922  73.743  31.232  0.00  0.00    -0.520 OA
ENDROOT
BRANCH   1   5
ATOM      5  C   LIG    1       14.719  75.913  32.138  0.00  0.00    +0.100 C 
BRANCH   5  11
ATOM      6  C   LIG    1       13.328  76.981  33.924  0.00  0.00    -0.060 A 
ATOM      7  C   LIG    1       12.930  77.106  35.241  0.00  0.00    +0.000 A 
ATOM      8  C   LIG    1       13.497  76.300  36.212  0.00  0.00    +0.000 A 
ATOM      9  C   LIG    1       14.459  75.371  35.865  0.00  0.00    +0.000 A 
ATOM     10  C   LIG    1       14.856  75.247  34.546  0.00  0.00    +0.020 A 
ATOM     11  C   LIG    1       14.287  76.048  33.575  0.00  0.00    -0.070 A 
BRANCH   6  13
ATOM     12  C   LIG    1       11.695  78.802  33.512  0.00  0.00    +0.030 C 
ATOM     13  C   LIG    1       12.711  77.858  32.865  0.00  0.00    +0.050 C 
ENDBRANCH   6  13
ENDBRANCH   5  11
ENDBRANCH   1   5
BRANCH   2  14
ATOM     14  C   LIG    1       12.301  73.227  30.874  0.00  0.00    +0.260 C 
BRANCH  14  15
ATOM     15  C   LIG    1       11.473  72.509  31.941  0.00  0.00    +0.020 C 
BRANCH  15  16
ATOM     16  C   LIG    1       10.858  73.540  32.891  0.00  0.00    -0.040 C 
ATOM     17  C   LIG    1       11.267  73.215  34.331  0.00  0.00    +0.010 C 
ATOM     18  C   LIG    1       10.585  74.207  35.278  0.00  0.00    -0.020 C 
ATOM     19  C   LIG    1        9.069  74.134  35.075  0.00  0.00    +0.200 C 
ATOM     20  O   LIG    1        8.760  74.415  33.707  0.00  0.00    -0.380 OA
ATOM     21  C   LIG    1        9.332  73.494  32.778  0.00  0.00    +0.210 C 
ENDBRANCH  15  16
ENDBRANCH  14  15
ENDBRANCH   2  14
TORSDOF 6
ENDMDL
MODEL 
REMARK VINA RESULT:    -6.957      0.000      0.000
REMARK INTER + INTRA:         -10.525
REMARK INTER:                  -9.664
REMARK INTRA:                  -0.861
REMARK UNBOUND:                -0.722
REMARK  Name = ZINC001371873476
REMARK                            x       y       z     vdW  Elec       q    Type
REMARK                         _______ _______ _______ _____ _____    ______ ____
ROOT
ATOM      1  C   LIG    1       11.735  73.234  32.684  0.00  0.00    -0.010 C 
ATOM      2  C   LIG    1       12.709  73.907  31.692  0.00  0.00    +0.270 C 
ATOM      3  N   LIG    1       14.037  73.347  32.034  0.00  0.00    -0.620 N 
ATOM      4  C   LIG    1       13.770  71.919  32.325  0.00  0.00    +0.260 C 
ATOM      5  C   LIG    1       15.221  73.991  32.071  0.00  0.00    +0.540 C 
ATOM      6  O   LIG    1       15.278  75.173  31.805  0.00  0.00    -0.540 OA
ATOM      7  C   LIG    1       12.434  71.923  33.103  0.00  0.00    -0.010 C 
ATOM      8  C   LIG    1       12.697  71.913  34.610  0.00  0.00    +0.030 C 
ENDROOT
BRANCH   1   9
ATOM      9  C   LIG    1       10.402  72.930  31.999  0.00  0.00    +0.030 C 
BRANCH   9  10
ATOM     10  C   LIG    1        9.273  73.654  32.735  0.00  0.00    +0.250 C 
BRANCH  10  12
ATOM     11  C   LIG    1        8.358  73.755  34.991  0.00  0.00    +0.510 C 
ATOM     12  N   LIG    1        9.214  73.184  34.121  0.00  0.00    -0.730 N 
ATOM     13  H   LIG    1        9.792  72.462  34.413  0.00  0.00    +0.400 HD
ATOM     14  O   LIG    1        7.635  74.658  34.625  0.00  0.00    -0.540 OA
BRANCH  11  16
ATOM     15  C   LIG    1        7.272  72.141  36.529  0.00  0.00    +0.050 C 
ATOM     16  C   LIG    1        8.297  73.271  36.417  0.00  0.00    -0.020 C 
ATOM     17  C   LIG    1        9.674  72.754  36.840  0.00  0.00    +0.050 C 
ENDBRANCH  11  16
ENDBRANCH  10  12
ENDBRANCH   9  10
ENDBRANCH   1   9
BRANCH   5  18
ATOM     18  C   LIG    1       16.474  73.242  32.444  0.00  0.00    +0.070 C 
BRANCH  18  19
ATOM     19  C   LIG    1       17.387  74.152  33.268  0.00  0.00    +0.160 C 
BRANCH  19  20
ATOM     20  C   LIG    1       17.202  73.856  34.734  0.00  0.00    +0.020 A 
ATOM     21  N   LIG    1       17.290  74.703  35.718  0.00  0.00    -0.360 NA
ATOM     22  O   LIG    1       17.090  74.169  36.785  0.00  0.00    +0.100 OA
ATOM     23  C   LIG    1       16.836  72.860  36.640  0.00  0.00    +0.160 A 
ATOM     24  C   LIG    1       16.892  72.603  35.312  0.00  0.00    -0.060 A 
ENDBRANCH  19  20
ENDBRANCH  18  19
ENDBRANCH   5  18
TORSDOF 7
ENDMDL
MODEL 
REMARK VINA RESULT:    -8.254      0.000      0.000
REMARK INTER + INTRA:         -11.580
REMARK INTER:                  -9.888
REMARK INTRA:                  -1.692
REMARK UNBOUND:                -0.913
REMARK  Name = ZINC000733420624
REMARK                            x       y       z     vdW  Elec       q    Type
REMARK                         _______ _______ _______ _____ _____    ______ ____
ROOT
ATOM      1  O   LIG    1       14.003  76.728  33.314  0.00  0.00    -0.350 OA
ENDROOT
BRANCH   1   3
ATOM      2  O   LIG    1       12.712  77.927  31.959  0.00  0.00    -0.480 OA
ATOM      3  C   LIG    1       12.922  77.500  33.079  0.00  0.00    +0.550 C 
BRANCH   3   4
ATOM      4  C   LIG    1       12.004  77.828  34.173  0.00  0.00    -0.080 A 
ATOM      5  C   LIG    1       11.583  79.075  34.545  0.00  0.00    +0.280 A 
ATOM      6  N   LIG    1       10.757  78.936  35.580  0.00  0.00    -0.490 NA
ATOM      7  C   LIG    1       10.633  77.667  35.880  0.00  0.00    +0.460 A 
ATOM      8  N   LIG    1       11.384  76.938  35.031  0.00  0.00    -0.390 N 
BRANCH   8   9
ATOM      9  C   LIG    1       11.517  75.543  35.025  0.00  0.00    +0.110 A 
ATOM     10  C   LIG    1       12.700  74.956  35.457  0.00  0.00    +0.040 A 
ATOM     11  C   LIG    1       12.828  73.581  35.452  0.00  0.00    +0.030 A 
ATOM     12  C   LIG    1       11.781  72.789  35.017  0.00  0.00    +0.020 A 
ATOM     13  C   LIG    1       10.603  73.370  34.587  0.00  0.00    +0.030 A 
ATOM     14  C   LIG    1       10.467  74.745  34.595  0.00  0.00    +0.030 A 
ENDBRANCH   8   9
ENDBRANCH   3   4
ENDBRANCH   1   3
BRANCH   1  15
ATOM     15  C   LIG    1       14.661  76.146  32.159  0.00  0.00    +0.310 C 
BRANCH  15  16
ATOM     16  C   LIG    1       14.232  74.709  32.007  0.00  0.00    -0.200 A 
ATOM     17  C   LIG    1       12.936  74.417  31.736  0.00  0.00    +0.160 A 
ATOM     18  C   LIG    1       12.551  73.011  31.594  0.00  0.00    -0.130 A 
ATOM     19  C   LIG    1       11.230  72.649  31.314  0.00  0.00    +0.080 A 
ATOM     20  C   LIG    1       10.903  71.328  31.186  0.00  0.00    -0.020 A 
ATOM     21  C   LIG    1       11.871  70.343  31.332  0.00  0.00    +0.070 A 
ATOM     22  C   LIG    1       13.179  70.678  31.609  0.00  0.00    -0.020 A 
ATOM     23  C   LIG    1       13.536  72.016  31.743  0.00  0.00    +0.180 A 
ATOM     24  N   LIG    1       14.836  72.380  32.019  0.00  0.00    -0.630 N 
ATOM     25  H   LIG    1       15.513  71.692  32.122  0.00  0.00    +0.420 HD
ATOM     26  C   LIG    1       15.181  73.674  32.141  0.00  0.00    +0.550 A 
ATOM     27  O   LIG    1       16.341  73.958  32.386  0.00  0.00    -0.530 OA
ENDBRANCH  15  16
ENDBRANCH   1  15
TORSDOF 5
ENDMDL
MODEL 
REMARK VINA RESULT:    -6.953      0.000      0.000
REMARK INTER + INTRA:          -9.059
REMARK INTER:                  -8.568
REMARK INTRA:                  -0.491
REMARK UNBOUND:                -0.480
REMARK  Name = ZINC000946872203
REMARK                            x       y       z     vdW  Elec       q    Type
REMARK                         _______ _______ _______ _____ _____    ______ ____
ROOT
ATOM      1  C   LIG    1       12.791  73.660  31.899  0.00  0.00    +0.580 C 
ATOM      2  N   LIG    1       11.944  73.276  32.873  0.00  0.00    -0.610 N 
ATOM      3  C   LIG    1       12.359  73.162  34.306  0.00  0.00    +0.290 C 
ATOM      4  C   LIG    1       11.634  74.294  35.036  0.00  0.00    +0.040 C 
ATOM      5  C   LIG    1       10.404  73.801  35.766  0.00  0.00    +0.010 C 
ATOM      6  C   LIG    1        9.660  74.991  36.417  0.00  0.00    +0.280 C 
ATOM      7  N   LIG    1        8.270  74.490  36.563  0.00  0.00    -0.380 N 
ATOM      8  C   LIG    1        7.988  73.717  35.335  0.00  0.00    +0.260 C 
ATOM      9  H   LIG    1        8.198  73.894  37.374  0.00  0.00    +0.430 HD
ATOM     10  C   LIG    1        9.345  73.198  34.795  0.00  0.00    +0.020 C 
ATOM     11  C   LIG    1        9.576  73.726  33.394  0.00  0.00    +0.030 C 
ATOM     12  C   LIG    1       10.569  72.950  32.619  0.00  0.00    +0.270 C 
ATOM     13  O   LIG    1       12.382  73.818  30.764  0.00  0.00    -0.510 OA
ENDROOT
BRANCH   1  19
ATOM     14  C   LIG    1       14.701  75.197  32.366  0.00  0.00    +0.180 A 
ATOM     15  C   LIG    1       16.042  75.401  32.656  0.00  0.00    -0.070 A 
ATOM     16  C   LIG    1       16.894  74.321  32.783  0.00  0.00    +0.080 A 
ATOM     17  C   LIG    1       16.419  73.030  32.623  0.00  0.00    -0.030 A 
ATOM     18  C   LIG    1       15.090  72.809  32.333  0.00  0.00    +0.070 A 
ATOM     19  C   LIG    1       14.215  73.890  32.208  0.00  0.00    -0.170 A 
BRANCH  14  21
ATOM     20  C   LIG    1       13.555  76.984  33.430  0.00  0.00    +0.250 C 
ATOM     21  O   LIG    1       13.862  76.255  32.240  0.00  0.00    -0.300 OA
ENDBRANCH  14  21
ENDBRANCH   1  19
BRANCH   7  22
ATOM     22  C   LIG    1        7.336  75.618  36.680  0.00  0.00    +0.290 C 
BRANCH  22  23
ATOM     23  C   LIG    1        7.309  76.103  38.106  0.00  0.00    +0.510 C 
ATOM     24  O   LIG    1        7.513  75.326  39.015  0.00  0.00    -0.530 OA
ATOM     25  N   LIG    1        7.058  77.400  38.373  0.00  0.00    -0.830 N 
ATOM     26  H   LIG    1        7.040  77.712  39.291  0.00  0.00    +0.420 HD
ATOM     27  H   LIG    1        6.894  78.021  37.646  0.00  0.00    +0.410 HD
ENDBRANCH  22  23
ENDBRANCH   7  22
TORSDOF 4
ENDMDL
MODEL 
REMARK VINA RESULT:    -7.087      0.000      0.000
REMARK INTER + INTRA:          -8.701
REMARK INTER:                  -9.129
REMARK INTRA:                   0.428
REMARK UNBOUND:                 0.457
REMARK  Name = ZINC000860988878
REMARK                            x       y       z     vdW  Elec       q    Type
REMARK                         _______ _______ _______ _____ _____    ______ ____
ROOT
ATOM      1  C   LIG    1       14.684  75.306  33.298  0.00  0.00    +0.540 C 
ATOM      2  N   LIG    1       14.140  74.425  32.435  0.00  0.00    -0.600 N 
ATOM      3  C   LIG    1       12.737  74.555  32.019  0.00  0.00    +0.270 C 
ATOM      4  C   LIG    1       12.023  73.224  32.276  0.00  0.00    +0.020 C 
ATOM      5  C   LIG    1       12.784  72.096  31.577  0.00  0.00    -0.010 C 
ATOM      6  C   LIG    1       14.200  72.003  32.150  0.00  0.00    +0.040 C 
ATOM      7  C   LIG    1       12.055  70.771  31.804  0.00  0.00    +0.030 C 
ATOM      8  C   LIG    1       14.941  73.323  31.886  0.00  0.00    +0.220 C 
ATOM      9  O   LIG    1       15.873  75.253  33.553  0.00  0.00    -0.500 OA
ENDROOT
BRANCH   8  10
ATOM     10  C   LIG    1       16.288  73.290  32.562  0.00  0.00    +0.530 C 
ATOM     11  O   LIG    1       17.227  73.881  32.071  0.00  0.00    -0.510 OA
ATOM     12  N   LIG    1       16.449  72.605  33.712  0.00  0.00    -0.860 N 
ATOM     13  H   LIG    1       17.315  72.585  34.146  0.00  0.00    +0.400 HD
ATOM     14  H   LIG    1       15.698  72.133  34.104  0.00  0.00    +0.400 HD
ENDBRANCH   8  10
BRANCH   1  16
ATOM     15  C   LIG    1       13.433  76.168  35.202  0.00  0.00    +0.120 C 
ATOM     16  C   LIG    1       13.844  76.327  33.929  0.00  0.00    -0.080 C 
BRANCH  15  21
ATOM     17  C   LIG    1       10.745  78.737  35.726  0.00  0.00    +0.130 A 
ATOM     18  C   LIG    1       11.002  79.128  37.035  0.00  0.00    -0.070 A 
ATOM     19  C   LIG    1       12.045  78.557  37.741  0.00  0.00    +0.050 A 
ATOM     20  C   LIG    1       12.839  77.595  37.152  0.00  0.00    -0.010 A 
ATOM     21  C   LIG    1       12.588  77.195  35.836  0.00  0.00    -0.040 A 
ATOM     22  C   LIG    1       11.531  77.769  35.126  0.00  0.00    +0.010 A 
BRANCH  17  23
ATOM     23  O   LIG    1        9.718  79.303  35.039  0.00  0.00    -0.320 OA
BRANCH  23  25
ATOM     24  C   LIG    1        8.172  81.125  35.399  0.00  0.00    +0.070 C 
ATOM     25  C   LIG    1        8.573  79.702  35.794  0.00  0.00    +0.170 C 
ENDBRANCH  23  25
ENDBRANCH  17  23
ENDBRANCH  15  21
ENDBRANCH   1  16
TORSDOF 5
ENDMDL
MODEL 
REMARK VINA RESULT:    -6.278      0.000      0.000
REMARK INTER + INTRA:          -8.736
REMARK INTER:                  -8.305
REMARK INTRA:                  -0.431
REMARK UNBOUND:                -0.623
REMARK  Name = ZINC000237183588
REMARK                            x       y       z     vdW  Elec       q    Type
REMARK                         _______ _______ _______ _____ _____    ______ ____
ROOT
ATOM      1  N   LIG    1       15.760  72.912  35.309  0.00  0.00    -0.730 N 
ATOM      2  H   LIG    1       15.599  71.960  35.210  0.00  0.00    +0.410 HD
ATOM      3  C   LIG    1       16.850  73.346  35.971  0.00  0.00    +0.610 C 
ATOM      4  O   LIG    1       17.052  74.539  36.094  0.00  0.00    -0.500 OA
ENDROOT
BRANCH   3   5
ATOM      5  C   LIG    1       17.796  72.378  36.544  0.00  0.00    -0.050 A 
ATOM      6  C   LIG    1       17.919  72.094  37.867  0.00  0.00    +0.080 A 
ATOM      7  C   LIG    1       18.970  71.084  37.970  0.00  0.00    -0.150 A 
ATOM      8  C   LIG    1       19.558  70.393  39.032  0.00  0.00    +0.090 A 
ATOM      9  C   LIG    1       20.549  69.486  38.784  0.00  0.00    -0.100 A 
ATOM     10  C   LIG    1       20.975  69.246  37.486  0.00  0.00    -0.040 A 
ATOM     11  C   LIG    1       20.409  69.916  36.423  0.00  0.00    +0.020 A 
ATOM     12  C   LIG    1       22.069  68.240  37.235  0.00  0.00    +0.110 C 
ATOM     13  C   LIG    1       21.184  68.740  39.930  0.00  0.00    +0.110 C 
ATOM     14  C   LIG    1       19.400  70.845  36.650  0.00  0.00    +0.080 A 
ATOM     15  O   LIG    1       18.669  71.631  35.835  0.00  0.00    -0.190 OA
ENDBRANCH   3   5
BRANCH   1  16
ATOM     16  C   LIG    1       14.818  73.877  34.738  0.00  0.00    +0.290 C 
BRANCH  16  17
ATOM     17  C   LIG    1       14.662  73.611  33.238  0.00  0.00    -0.030 C 
ATOM     18  C   LIG    1       14.369  74.927  32.515  0.00  0.00    +0.050 C 
BRANCH  17  19
ATOM     19  C   LIG    1       15.956  73.004  32.691  0.00  0.00    +0.280 C 
BRANCH  19  21
ATOM     20  C   LIG    1       18.259  73.667  32.589  0.00  0.00    +0.330 C 
ATOM     21  N   LIG    1       16.878  74.081  32.307  0.00  0.00    -0.510 N 
ATOM     22  H   LIG    1       16.779  74.273  31.321  0.00  0.00    +0.430 HD
ATOM     23  H   LIG    1       16.663  74.914  32.835  0.00  0.00    +0.430 HD
ENDBRANCH  19  21
ENDBRANCH  17  19
ENDBRANCH  16  17
ENDBRANCH   1  16
TORSDOF 5
ENDMDL
MODEL 
REMARK VINA RESULT:    -6.640      0.000      0.000
REMARK INTER + INTRA:          -9.238
REMARK INTER:                  -9.017
REMARK INTRA:                  -0.221
REMARK UNBOUND:                -0.463
REMARK  Name = ZINC000895163053
REMARK                            x       y       z     vdW  Elec       q    Type
REMARK                         _______ _______ _______ _____ _____    ______ ____
ROOT
ATOM      1  C   LIG    1       12.119  73.244  31.960  0.00  0.00    +0.290 C 
ENDROOT
BRANCH   1   5
ATOM      2  C   LIG    1       10.928  69.966  30.799  0.00  0.00    -0.040 A 
ATOM      3  C   LIG    1       11.568  69.597  31.964  0.00  0.00    +0.060 A 
ATOM      4  C   LIG    1       12.085  70.765  32.532  0.00  0.00    -0.050 A 
ATOM      5  C   LIG    1       11.758  71.801  31.722  0.00  0.00    +0.070 A 
ATOM      6  N   LIG    1       11.062  71.329  30.666  0.00  0.00    -0.510 N 
ATOM      7  H   LIG    1       10.710  71.864  29.938  0.00  0.00    +0.420 HD
BRANCH   2   8
ATOM      8  C   LIG    1       10.237  69.069  29.869  0.00  0.00    +0.540 C 
ATOM      9  O   LIG    1        9.086  69.297  29.545  0.00  0.00    -0.500 OA
BRANCH   8  11
ATOM     10  C   LIG    1       10.079  67.048  28.604  0.00  0.00    +0.280 C 
ATOM     11  O   LIG    1       10.875  67.990  29.371  0.00  0.00    -0.370 OA
ENDBRANCH   8  11
ENDBRANCH   2   8
ENDBRANCH   1   5
BRANCH   1  12
ATOM     12  N   LIG    1       12.894  73.749  30.819  0.00  0.00    -0.660 NA
ATOM     13  H   LIG    1       12.962  73.054  30.091  0.00  0.00    +0.350 HD
BRANCH  12  14
ATOM     14  C   LIG    1       14.227  74.198  31.246  0.00  0.00    +0.210 C 
ATOM     15  C   LIG    1       14.969  73.031  31.901  0.00  0.00    +0.050 C 
ATOM     16  C   LIG    1       16.230  73.580  32.580  0.00  0.00    +0.040 C 
ATOM     17  C   LIG    1       15.808  74.460  33.759  0.00  0.00    +0.300 C 
ATOM     18  N   LIG    1       14.814  75.437  33.335  0.00  0.00    -0.450 N 
ATOM     19  C   LIG    1       14.082  75.325  32.228  0.00  0.00    +0.470 C 
ATOM     20  O   LIG    1       13.255  76.182  31.997  0.00  0.00    -0.560 OA
BRANCH  18  21
ATOM     21  O   LIG    1       14.614  76.576  34.152  0.00  0.00    -0.340 OA
ATOM     22  H   LIG    1       13.990  77.218  33.785  0.00  0.00    +0.400 HD
ENDBRANCH  18  21
ENDBRANCH  12  14
ENDBRANCH   1  12
TORSDOF 6
ENDMDL
MODEL 
REMARK VINA RESULT:    -6.809      0.000      0.000
REMARK INTER + INTRA:         -10.662
REMARK INTER:                 -10.339
REMARK INTRA:                  -0.324
REMARK UNBOUND:                -0.272
REMARK  Name = ZINC001213872144
REMARK                            x       y       z     vdW  Elec       q    Type
REMARK                         _______ _______ _______ _____ _____    ______ ____
ROOT
ATOM      1  N   LIG    1       15.167  72.918  34.781  0.00  0.00    -0.720 N 
ATOM      2  H   LIG    1       14.784  72.029  34.830  0.00  0.00    +0.410 HD
ATOM      3  C   LIG    1       16.011  73.342  35.742  0.00  0.00    +0.520 C 
ATOM      4  O   LIG    1       16.492  74.454  35.681  0.00  0.00    -0.520 OA
ENDROOT
BRANCH   1   7
ATOM      5  N   LIG    1       13.316  74.082  31.849  0.00  0.00    -0.390 N 
ATOM      6  C   LIG    1       13.342  73.644  33.267  0.00  0.00    +0.270 C 
ATOM      7  C   LIG    1       14.832  73.800  33.661  0.00  0.00    +0.270 C 
ATOM      8  C   LIG    1       15.575  73.367  32.376  0.00  0.00    +0.170 C 
ATOM      9  C   LIG    1       14.553  73.549  31.238  0.00  0.00    +0.260 C 
ATOM     10  H   LIG    1       13.310  75.090  31.796  0.00  0.00    +0.430 HD
BRANCH   8  11
ATOM     11  O   LIG    1       16.715  74.199  32.158  0.00  0.00    -0.360 OA
ATOM     12  C   LIG    1       17.946  73.630  32.610  0.00  0.00    +0.240 C 
ENDBRANCH   8  11
BRANCH   5  13
ATOM     13  C   LIG    1       12.137  73.531  31.168  0.00  0.00    +0.270 C 
BRANCH  13  14
ATOM     14  C   LIG    1       11.436  72.531  32.089  0.00  0.00    +0.200 C 
BRANCH  14  16
ATOM     15  C   LIG    1       11.264  70.186  30.876  0.00  0.00    +0.110 C 
ATOM     16  C   LIG    1       11.341  71.226  31.414  0.00  0.00    -0.240 C 
ENDBRANCH  14  16
ENDBRANCH  13  14
ENDBRANCH   5  13
ENDBRANCH   1   7
BRANCH   3  17
ATOM     17  C   LIG    1       16.357  72.434  36.895  0.00  0.00    +0.320 C 
BRANCH  17  18
ATOM     18  N   LIG    1       17.377  71.472  36.470  0.00  0.00    -0.730 N 
ATOM     19  H   LIG    1       17.124  70.696  35.946  0.00  0.00    +0.410 HD
ATOM     20  C   LIG    1       18.668  71.666  36.807  0.00  0.00    +0.520 C 
ATOM     21  O   LIG    1       18.985  72.636  37.462  0.00  0.00    -0.520 OA
BRANCH  20  22
ATOM     22  C   LIG    1       19.716  70.677  36.370  0.00  0.00    +0.070 C 
BRANCH  22  23
ATOM     23  C   LIG    1       19.894  69.611  37.453  0.00  0.00    -0.050 C 
ATOM     24  C   LIG    1       18.807  68.544  37.302  0.00  0.00    +0.030 C 
ATOM     25  C   LIG    1       19.783  70.261  38.833  0.00  0.00    +0.030 C 
ATOM     26  C   LIG    1       21.271  68.960  37.306  0.00  0.00    +0.030 C 
ENDBRANCH  22  23
ENDBRANCH  20  22
ENDBRANCH  17  18
ENDBRANCH   3  17
TORSDOF 9
ENDMDL
MODEL 
REMARK VINA RESULT:    -5.648      0.000      0.000
REMARK INTER + INTRA:          -9.941
REMARK INTER:                  -8.914
REMARK INTRA:                  -1.027
REMARK UNBOUND:                -1.652
REMARK  Name = ZINC001163176763
REMARK                            x       y       z     vdW  Elec       q    Type
REMARK                         _______ _______ _______ _____ _____    ______ ____
ROOT
ATOM      1  N   LIG    1       16.270  72.613  34.756  0.00  0.00    -0.360 N 
ATOM      2  C   LIG    1       16.885  73.084  33.527  0.00  0.00    +0.160 C 
ATOM      3  C   LIG    1       15.959  73.017  32.318  0.00  0.00    +0.320 C 
ATOM      4  N   LIG    1       14.646  73.569  32.677  0.00  0.00    -0.630 N 
ATOM      5  C   LIG    1       13.979  73.006  33.858  0.00  0.00    +0.330 C 
ATOM      6  C   LIG    1       14.071  74.543  31.946  0.00  0.00    +0.520 C 
ATOM      7  O   LIG    1       14.638  74.982  30.967  0.00  0.00    -0.500 OA
ATOM      8  C   LIG    1       17.466  74.489  33.677  0.00  0.00    +0.100 C 
ATOM      9  C   LIG    1       14.924  73.072  35.055  0.00  0.00    +0.140 C 
ATOM     10  C   LIG    1       14.917  74.473  35.665  0.00  0.00    +0.080 C 
ATOM     11  H   LIG    1       16.245  71.585  34.715  0.00  0.00    +0.420 HD
ENDROOT
BRANCH   1  12
ATOM     12  C   LIG    1       17.153  72.954  35.893  0.00  0.00    +0.280 C 
BRANCH  12  13
ATOM     13  C   LIG    1       17.783  71.675  36.450  0.00  0.00    +0.210 C 
BRANCH  13  15
ATOM     14  C   LIG    1       19.879  70.513  36.448  0.00  0.00    +0.230 C 
ATOM     15  O   LIG    1       19.207  71.771  36.368  0.00  0.00    -0.390 OA
ENDBRANCH  13  15
ENDBRANCH  12  13
ENDBRANCH   1  12
BRANCH   6  16
ATOM     16  C   LIG    1       12.723  75.087  32.342  0.00  0.00    +0.060 C 
BRANCH  16  17
ATOM     17  C   LIG    1       12.910  76.335  33.207  0.00  0.00    +0.000 C 
ATOM     18  C   LIG    1       12.884  77.581  32.320  0.00  0.00    +0.020 C 
BRANCH  17  19
ATOM     19  C   LIG    1       11.782  76.417  34.237  0.00  0.00    +0.010 C 
BRANCH  19  20
ATOM     20  C   LIG    1       11.375  75.004  34.662  0.00  0.00    +0.040 C 
BRANCH  20  21
ATOM     21  C   LIG    1        9.949  75.017  35.147  0.00  0.00    -0.060 C 
ATOM     22  C   LIG    1        9.037  74.319  34.519  0.00  0.00    -0.130 C 
ATOM     23  C   LIG    1        7.640  74.224  35.078  0.00  0.00    +0.070 C 
ATOM     24  C   LIG    1        9.382  73.609  33.235  0.00  0.00    +0.070 C 
ENDBRANCH  20  21
ENDBRANCH  19  20
ENDBRANCH  17  19
ENDBRANCH  16  17
ENDBRANCH   6  16
TORSDOF 8
ENDMDL
MODEL 
REMARK VINA RESULT:    -7.004      0.000      0.000
REMARK INTER + INTRA:         -10.111
REMARK INTER:                  -9.407
REMARK INTRA:                  -0.705
REMARK UNBOUND:                -0.651
REMARK  Name = ZINC000421977324
REMARK                            x       y       z     vdW  Elec       q    Type
REMARK                         _______ _______ _______ _____ _____    ______ ____
ROOT
ATOM      1  C   LIG    1       13.186  72.071  35.131  0.00  0.00    +0.030 C 
ATOM      2  C   LIG    1       12.319  71.454  34.032  0.00  0.00    -0.020 C 
ATOM      3  C   LIG    1       10.947  72.132  34.022  0.00  0.00    +0.060 C 
ATOM      4  C   LIG    1       11.120  73.635  33.790  0.00  0.00    +0.020 C 
ATOM      5  C   LIG    1       11.782  73.863  32.427  0.00  0.00    +0.300 C 
ATOM      6  N   LIG    1       13.034  73.095  32.374  0.00  0.00    -0.610 N 
ATOM      7  C   LIG    1       14.197  73.699  32.060  0.00  0.00    +0.520 C 
ATOM      8  O   LIG    1       15.224  73.055  32.020  0.00  0.00    -0.530 OA
ATOM      9  C   LIG    1       12.994  71.656  32.672  0.00  0.00    +0.280 C 
ENDROOT
BRANCH   4  10
ATOM     10  C   LIG    1        9.772  74.307  33.813  0.00  0.00    +0.470 C 
ATOM     11  O   LIG    1        8.952  74.047  32.964  0.00  0.00    -0.490 OA
BRANCH  10  12
ATOM     12  O   LIG    1        9.481  75.194  34.778  0.00  0.00    -0.350 OA
BRANCH  12  13
ATOM     13  C   LIG    1        8.770  74.693  35.941  0.00  0.00    +0.120 C 
ATOM     14  C   LIG    1        7.925  75.816  36.546  0.00  0.00    +0.030 C 
ATOM     15  C   LIG    1        9.779  74.199  36.980  0.00  0.00    +0.080 C 
ATOM     16  C   LIG    1        7.860  73.537  35.524  0.00  0.00    +0.030 C 
ENDBRANCH  12  13
ENDBRANCH  10  12
ENDBRANCH   4  10
BRANCH   7  17
ATOM     17  C   LIG    1       14.222  75.177  31.758  0.00  0.00    +0.050 C 
BRANCH  17  18
ATOM     18  C   LIG    1       14.567  75.951  33.031  0.00  0.00    +0.130 C 
BRANCH  18  19
ATOM     19  C   LIG    1       13.496  76.977  33.301  0.00  0.00    -0.240 A 
ATOM     20  C   LIG    1       12.948  77.257  34.506  0.00  0.00    +0.230 A 
ATOM     21  N   LIG    1       12.031  78.230  34.324  0.00  0.00    -0.380 N 
ATOM     22  N   LIG    1       12.015  78.559  32.963  0.00  0.00    -0.300 NA
ATOM     23  C   LIG    1       11.199  78.837  35.367  0.00  0.00    +0.360 C 
ATOM     24  C   LIG    1       12.898  77.812  32.351  0.00  0.00    +0.230 A 
ENDBRANCH  18  19
ENDBRANCH  17  18
ENDBRANCH   7  17
TORSDOF 6
ENDMDL
MODEL 
REMARK VINA RESULT:    -8.176      0.000      0.000
REMARK INTER + INTRA:          -8.790
REMARK INTER:                  -9.975
REMARK INTRA:                   1.185
REMARK UNBOUND:                 1.298
REMARK  Name = ZINC000614198935
REMARK                            x       y       z     vdW  Elec       q    Type
REMARK                         _______ _______ _______ _____ _____    ______ ____
ROOT
ATOM      1  C   LIG    1       11.789  78.079  33.816  0.00  0.00    +0.500 C 
ATOM      2  N   LIG    1       11.841  76.741  33.662  0.00  0.00    -0.600 N 
ATOM      3  C   LIG    1       11.329  75.847  34.709  0.00  0.00    +0.280 C 
ATOM      4  C   LIG    1       12.431  74.855  35.095  0.00  0.00    +0.030 C 
ATOM      5  C   LIG    1       12.915  74.124  33.839  0.00  0.00    +0.050 C 
ATOM      6  C   LIG    1       13.478  75.132  32.844  0.00  0.00    +0.110 C 
ATOM      7  N   LIG    1       14.651  75.812  33.405  0.00  0.00    -0.710 N 
ATOM      8  H   LIG    1       14.676  76.367  34.201  0.00  0.00    +0.440 HD
ATOM      9  C   LIG    1       15.687  75.514  32.596  0.00  0.00    +0.710 C 
ATOM     10  N   LIG    1       15.328  74.724  31.578  0.00  0.00    -0.680 N 
ATOM     11  H   LIG    1       15.939  74.405  30.894  0.00  0.00    +0.440 HD
ATOM     12  O   LIG    1       16.820  75.918  32.772  0.00  0.00    -0.540 OA
ATOM     13  C   LIG    1       14.013  74.424  31.621  0.00  0.00    +0.540 C 
ATOM     14  O   LIG    1       13.392  73.732  30.842  0.00  0.00    -0.450 OA
ATOM     15  C   LIG    1       12.405  76.148  32.442  0.00  0.00    +0.330 C 
ATOM     16  O   LIG    1       12.142  78.808  32.912  0.00  0.00    -0.520 OA
ENDROOT
BRANCH   1  17
ATOM     17  C   LIG    1       11.293  78.672  35.109  0.00  0.00    +0.100 C 
ATOM     18  C   LIG    1       12.145  78.152  36.268  0.00  0.00    +0.110 C 
ATOM     19  C   LIG    1       11.395  80.197  35.045  0.00  0.00    +0.070 C 
BRANCH  17  20
ATOM     20  O   LIG    1        9.930  78.293  35.314  0.00  0.00    -0.300 OA
BRANCH  20  24
ATOM     21  C   LIG    1        7.394  81.174  36.834  0.00  0.00    +0.100 A 
ATOM     22  C   LIG    1        7.901  80.187  37.667  0.00  0.00    -0.030 A 
ATOM     23  C   LIG    1        8.749  79.223  37.158  0.00  0.00    +0.040 A 
ATOM     24  C   LIG    1        9.095  79.242  35.815  0.00  0.00    +0.080 A 
ATOM     25  C   LIG    1        8.587  80.227  34.982  0.00  0.00    -0.020 A 
ATOM     26  C   LIG    1        7.735  81.189  35.490  0.00  0.00    +0.020 A 
BRANCH  21  28
ATOM     27  C   LIG    1        5.211  81.726  37.598  0.00  0.00    +0.250 C 
ATOM     28  O   LIG    1        6.558  82.123  37.334  0.00  0.00    -0.320 OA
ENDBRANCH  21  28
ENDBRANCH  20  24
ENDBRANCH  17  20
ENDBRANCH   1  17
TORSDOF 4
ENDMDL
MODEL 
REMARK VINA RESULT:    -7.006      0.000      0.000
REMARK INTER + INTRA:          -7.841
REMARK INTER:                  -8.003
REMARK INTRA:                   0.162
REMARK UNBOUND:                 0.393
REMARK  Name = ZINC000922382007
REMARK                            x       y       z     vdW  Elec       q    Type
REMARK                         _______ _______ _______ _____ _____    ______ ____
ROOT
ATOM      1  N   LIG    1       14.460  73.478  34.368  0.00  0.00    -0.720 N 
ATOM      2  H   LIG    1       13.647  73.110  34.750  0.00  0.00    +0.410 HD
ATOM      3  C   LIG    1       15.626  73.369  35.034  0.00  0.00    +0.710 C 
ATOM      4  N   LIG    1       15.665  72.751  36.231  0.00  0.00    -0.740 N 
ATOM      5  H   LIG    1       14.852  72.384  36.613  0.00  0.00    +0.400 HD
ATOM      6  O   LIG    1       16.645  73.830  34.555  0.00  0.00    -0.580 OA
ENDROOT
BRANCH   4   7
ATOM      7  C   LIG    1       16.933  72.633  36.954  0.00  0.00    +0.260 C 
ATOM      8  C   LIG    1       17.346  71.159  37.033  0.00  0.00    +0.030 C 
ATOM      9  C   LIG    1       18.754  71.082  37.629  0.00  0.00    +0.090 C 
ATOM     10  C   LIG    1       18.828  71.917  38.874  0.00  0.00    +0.520 C 
ATOM     11  N   LIG    1       17.939  72.861  39.181  0.00  0.00    -0.710 N 
ATOM     12  H   LIG    1       18.082  73.375  39.992  0.00  0.00    +0.400 HD
ATOM     13  O   LIG    1       19.746  71.722  39.642  0.00  0.00    -0.550 OA
ATOM     14  C   LIG    1       16.765  73.174  38.374  0.00  0.00    +0.160 C 
ATOM     15  C   LIG    1       15.530  72.534  39.010  0.00  0.00    +0.040 C 
ATOM     16  C   LIG    1       16.575  74.692  38.327  0.00  0.00    +0.050 C 
ENDBRANCH   4   7
BRANCH   1  24
ATOM     17  C   LIG    1       12.969  74.445  32.614  0.00  0.00    +0.250 C 
ATOM     18  C   LIG    1       12.782  73.713  31.267  0.00  0.00    +0.040 C 
ATOM     19  C   LIG    1       14.217  73.598  30.698  0.00  0.00    +0.040 C 
ATOM     20  C   LIG    1       15.062  73.295  31.959  0.00  0.00    +0.040 C 
ATOM     21  O   LIG    1       12.875  75.863  32.396  0.00  0.00    -0.370 OA
ATOM     22  C   LIG    1       13.881  76.492  33.207  0.00  0.00    +0.210 C 
ATOM     23  C   LIG    1       15.098  75.539  33.093  0.00  0.00    +0.030 C 
ATOM     24  C   LIG    1       14.419  74.150  33.067  0.00  0.00    +0.190 C 
BRANCH  17  26
ATOM     25  C   LIG    1       11.050  73.083  33.072  0.00  0.00    +0.220 C 
ATOM     26  O   LIG    1       12.018  74.002  33.583  0.00  0.00    -0.390 OA
ENDBRANCH  17  26
ENDBRANCH   1  24
TORSDOF 3
ENDMDL
MODEL 
REMARK VINA RESULT:    -6.603      0.000      0.000
REMARK INTER + INTRA:         -10.314
REMARK INTER:                  -9.690
REMARK INTRA:                  -0.624
REMARK UNBOUND:                -1.009
REMARK  Name = ZINC001398977611
REMARK                            x       y       z     vdW  Elec       q    Type
REMARK                         _______ _______ _______ _____ _____    ______ ____
ROOT
ATOM      1  C   LIG    1       17.131  73.160  35.193  0.00  0.00    +0.230 C 
ENDROOT
BRANCH   1   2
ATOM      2  N   LIG    1       17.379  71.765  35.564  0.00  0.00    -0.730 N 
ATOM      3  H   LIG    1       16.824  71.059  35.198  0.00  0.00    +0.400 HD
ATOM      4  C   LIG    1       18.378  71.462  36.416  0.00  0.00    +0.510 C 
ATOM      5  O   LIG    1       19.073  72.344  36.875  0.00  0.00    -0.520 OA
BRANCH   4   6
ATOM      6  C   LIG    1       18.633  70.026  36.799  0.00  0.00    +0.060 C 
BRANCH   6   7
ATOM      7  C   LIG    1       19.789  69.962  37.800  0.00  0.00    -0.020 C 
ATOM      8  C   LIG    1       20.876  69.025  37.267  0.00  0.00    +0.010 C 
ATOM      9  C   LIG    1       21.991  68.909  38.312  0.00  0.00    -0.020 C 
ATOM     10  C   LIG    1       21.393  68.414  39.631  0.00  0.00    +0.200 C 
ATOM     11  O   LIG    1       20.367  69.314  40.055  0.00  0.00    -0.380 OA
ATOM     12  C   LIG    1       19.276  69.427  39.140  0.00  0.00    +0.210 C 
ENDBRANCH   6   7
ENDBRANCH   4   6
ENDBRANCH   1   2
BRANCH   1  14
ATOM     13  C   LIG    1       16.439  74.580  37.128  0.00  0.00    +0.030 C 
ATOM     14  C   LIG    1       15.937  73.694  35.986  0.00  0.00    +0.020 C 
ENDBRANCH   1  14
BRANCH   1  15
ATOM     15  C   LIG    1       16.827  73.242  33.695  0.00  0.00    +0.280 C 
BRANCH  15  16
ATOM     16  N   LIG    1       15.468  72.754  33.446  0.00  0.00    -0.730 N 
ATOM     17  H   LIG    1       15.053  72.134  34.066  0.00  0.00    +0.400 HD
ATOM     18  C   LIG    1       14.794  73.166  32.354  0.00  0.00    +0.590 C 
ATOM     19  O   LIG    1       15.313  73.944  31.576  0.00  0.00    -0.520 OA
BRANCH  18  20
ATOM     20  C   LIG    1       13.435  72.678  32.105  0.00  0.00    -0.270 A 
ATOM     21  C   LIG    1       12.283  73.343  32.421  0.00  0.00    +0.110 A 
ATOM     22  C   LIG    1       11.145  72.654  32.073  0.00  0.00    -0.120 A 
ATOM     23  C   LIG    1       11.354  71.467  31.492  0.00  0.00    -0.060 A 
ATOM     24  C   LIG    1        9.762  73.196  32.328  0.00  0.00    +0.110 C 
ATOM     25  S   LIG    1       13.024  71.147  31.342  0.00  0.00    +0.200 S 
ENDBRANCH  18  20
ENDBRANCH  15  16
ENDBRANCH   1  15
TORSDOF 7
ENDMDL
MODEL 
REMARK VINA RESULT:    -6.775      0.000      0.000
REMARK INTER + INTRA:          -9.856
REMARK INTER:                  -9.266
REMARK INTRA:                  -0.591
REMARK UNBOUND:                -0.705
REMARK  Name = ZINC000880748134
REMARK                            x       y       z     vdW  Elec       q    Type
REMARK                         _______ _______ _______ _____ _____    ______ ____
ROOT
ATOM      1  N   LIG    1       12.614  76.908  33.518  0.00  0.00    -0.710 N 
ATOM      2  H   LIG    1       12.481  76.236  34.206  0.00  0.00    +0.410 HD
ATOM      3  C   LIG    1       12.003  78.106  33.620  0.00  0.00    +0.600 C 
ATOM      4  O   LIG    1       12.170  78.947  32.758  0.00  0.00    -0.530 OA
ENDROOT
BRANCH   3   5
ATOM      5  C   LIG    1       11.135  78.394  34.775  0.00  0.00    +0.010 A 
ATOM      6  C   LIG    1       11.283  77.768  35.977  0.00  0.00    +0.000 A 
ATOM      7  S   LIG    1       10.103  78.363  37.064  0.00  0.00    +0.200 S 
ATOM      8  C   LIG    1        9.470  79.436  35.819  0.00  0.00    +0.120 A 
ATOM      9  N   LIG    1       10.157  79.287  34.726  0.00  0.00    -0.400 NA
BRANCH   8  10
ATOM     10  C   LIG    1        8.340  80.365  35.993  0.00  0.00    +0.250 A 
ATOM     11  N   LIG    1        7.640  80.529  37.096  0.00  0.00    -0.430 NA
ATOM     12  C   LIG    1        6.697  81.452  36.885  0.00  0.00    +0.160 A 
ATOM     13  C   LIG    1        6.801  81.886  35.611  0.00  0.00    +0.170 A 
ATOM     14  N   LIG    1        7.843  81.208  35.041  0.00  0.00    -0.560 N 
ATOM     15  H   LIG    1        8.164  81.304  34.130  0.00  0.00    +0.420 HD
ENDBRANCH   8  10
ENDBRANCH   3   5
BRANCH   1  16
ATOM     16  C   LIG    1       13.477  76.621  32.370  0.00  0.00    +0.280 C 
BRANCH  16  17
ATOM     17  C   LIG    1       13.662  75.108  32.236  0.00  0.00    +0.150 C 
BRANCH  17  18
ATOM     18  C   LIG    1       12.326  74.407  32.490  0.00  0.00    -0.010 C 
ATOM     19  C   LIG    1       11.845  73.677  31.212  0.00  0.00    +0.020 C 
ATOM     20  C   LIG    1       10.900  72.588  31.775  0.00  0.00    +0.020 C 
ATOM     21  C   LIG    1       11.589  72.122  33.074  0.00  0.00    -0.010 C 
ATOM     22  C   LIG    1       12.496  73.279  33.528  0.00  0.00    +0.020 C 
ENDBRANCH  17  18
BRANCH  17  24
ATOM     23  C   LIG    1       15.951  75.134  32.949  0.00  0.00    +0.200 C 
ATOM     24  O   LIG    1       14.625  74.658  33.192  0.00  0.00    -0.380 OA
ENDBRANCH  17  24
ENDBRANCH  16  17
ENDBRANCH   1  16
TORSDOF 6
ENDMDL
MODEL 
REMARK VINA RESULT:    -6.210      0.000      0.000
REMARK INTER + INTRA:          -6.359
REMARK INTER:                  -7.264
REMARK INTRA:                   0.905
REMARK UNBOUND:                 0.941
REMARK  Name = ZINC000895028103
REMARK                            x       y       z     vdW  Elec       q    Type
REMARK                         _______ _______ _______ _____ _____    ______ ____
ROOT
ATOM      1  N   LIG    1       14.310  72.496  33.537  0.00  0.00    -0.740 N 
ATOM      2  H   LIG    1       14.719  72.432  34.414  0.00  0.00    +0.400 HD
ATOM      3  C   LIG    1       12.968  72.466  33.416  0.00  0.00    +0.710 C 
ATOM      4  N   LIG    1       12.196  72.347  34.513  0.00  0.00    -0.640 N 
ATOM      5  C   LIG    1       12.813  72.251  35.838  0.00  0.00    +0.290 C 
ATOM      6  O   LIG    1       12.455  72.546  32.316  0.00  0.00    -0.560 OA
ENDROOT
BRANCH   4   7
ATOM      7  C   LIG    1       10.736  72.315  34.382  0.00  0.00    +0.270 C 
ATOM      8  C   LIG    1       10.264  73.551  33.612  0.00  0.00    +0.050 C 
ATOM      9  C   LIG    1       10.618  74.807  34.416  0.00  0.00    +0.050 C 
ATOM     10  C   LIG    1        9.984  74.711  35.806  0.00  0.00    +0.250 C 
ATOM     11  N   LIG    1       10.494  73.523  36.500  0.00  0.00    -0.400 N 
ATOM     12  C   LIG    1        9.942  73.477  37.860  0.00  0.00    +0.330 C 
ATOM     13  H   LIG    1       11.502  73.570  36.548  0.00  0.00    +0.420 HD
ATOM     14  C   LIG    1       10.098  72.310  35.772  0.00  0.00    +0.270 C 
ENDBRANCH   4   7
BRANCH   1  15
ATOM     15  C   LIG    1       15.151  72.625  32.344  0.00  0.00    +0.420 C 
BRANCH  15  18
ATOM     16  C   LIG    1       14.336  75.625  32.098  0.00  0.00    +0.170 C 
ATOM     17  C   LIG    1       15.729  75.130  32.391  0.00  0.00    +0.060 A 
ATOM     18  C   LIG    1       16.056  73.821  32.494  0.00  0.00    -0.310 A 
ATOM     19  S   LIG    1       17.743  73.835  32.834  0.00  0.00    +0.450 S 
ATOM     20  N   LIG    1       17.897  75.392  32.821  0.00  0.00    -0.270 NA
ATOM     21  N   LIG    1       16.764  75.924  32.573  0.00  0.00    -0.240 NA
ENDBRANCH  15  18
ENDBRANCH   1  15
TORSDOF 3
ENDMDL
MODEL 
REMARK VINA RESULT:    -6.578      0.000      0.000
REMARK INTER + INTRA:          -9.466
REMARK INTER:                  -8.891
REMARK INTRA:                  -0.575
REMARK UNBOUND:                -0.580
REMARK  Name = ZINC000601916845
REMARK                            x       y       z     vdW  Elec       q    Type
REMARK                         _______ _______ _______ _____ _____    ______ ____
ROOT
ATOM      1  C   LIG    1       14.312  76.110  32.580  0.00  0.00    +0.350 C 
ENDROOT
BRANCH   1   7
ATOM      2  C   LIG    1       12.654  73.723  31.506  0.00  0.00    +0.220 C 
ATOM      3  C   LIG    1       14.094  73.687  31.950  0.00  0.00    +0.290 A 
ATOM      4  N   LIG    1       14.865  72.634  31.944  0.00  0.00    -0.480 NA
ATOM      5  C   LIG    1       16.079  72.973  32.404  0.00  0.00    +0.310 A 
ATOM      6  C   LIG    1       16.059  74.285  32.705  0.00  0.00    -0.010 A 
ATOM      7  N   LIG    1       14.801  74.740  32.414  0.00  0.00    -0.430 N 
BRANCH   6   8
ATOM      8  N   LIG    1       17.183  75.083  33.246  0.00  0.00    +0.070 N 
ATOM      9  O   LIG    1       17.688  75.960  32.568  0.00  0.00    -0.170 OA
ATOM     10  O   LIG    1       17.603  74.862  34.367  0.00  0.00    -0.130 OA
ENDBRANCH   6   8
ENDBRANCH   1   7
BRANCH   1  11
ATOM     11  C   LIG    1       13.850  76.316  34.024  0.00  0.00    +0.070 C 
BRANCH  11  12
ATOM     12  S   LIG    1       12.198  77.065  34.029  0.00  0.00    -0.190 S 
BRANCH  12  13
ATOM     13  C   LIG    1       11.452  76.395  35.541  0.00  0.00    +0.170 C 
BRANCH  13  14
ATOM     14  C   LIG    1       10.287  75.509  35.176  0.00  0.00    +0.190 A 
ATOM     15  N   LIG    1       10.294  74.824  34.044  0.00  0.00    -0.510 NA
ATOM     16  C   LIG    1        9.280  74.048  33.719  0.00  0.00    +0.320 A 
ATOM     17  N   LIG    1        8.225  73.921  34.499  0.00  0.00    -0.520 NA
ATOM     18  C   LIG    1        8.148  74.576  35.646  0.00  0.00    +0.330 A 
ATOM     19  C   LIG    1        9.328  73.285  32.421  0.00  0.00    +0.180 C 
ATOM     20  C   LIG    1        9.197  75.398  36.026  0.00  0.00    -0.070 A 
ENDBRANCH  13  14
ENDBRANCH  12  13
ENDBRANCH  11  12
ENDBRANCH   1  11
TORSDOF 6
ENDMDL
MODEL 
REMARK VINA RESULT:    -7.518      0.000      0.000
REMARK INTER + INTRA:         -10.405
REMARK INTER:                  -9.188
REMARK INTRA:                  -1.216
REMARK UNBOUND:                -0.689
REMARK  Name = ZINC000921618374
REMARK                            x       y       z     vdW  Elec       q    Type
REMARK                         _______ _______ _______ _____ _____    ______ ____
ROOT
ATOM      1  S   LIG    1       17.444  74.713  32.774  0.00  0.00    +2.700 S 
ATOM      2  O   LIG    1       17.738  76.074  32.492  0.00  0.00    -0.950 OA
ATOM      3  O   LIG    1       18.155  73.627  32.197  0.00  0.00    -0.950 OA
ENDROOT
BRANCH   1   7
ATOM      4  C   LIG    1       13.085  74.094  31.707  0.00  0.00    +0.150 A 
ATOM      5  C   LIG    1       13.969  73.028  31.662  0.00  0.00    -0.050 A 
ATOM      6  C   LIG    1       15.299  73.220  31.988  0.00  0.00    +0.170 A 
ATOM      7  C   LIG    1       15.748  74.473  32.359  0.00  0.00    -0.690 A 
ATOM      8  C   LIG    1       14.869  75.540  32.405  0.00  0.00    +0.140 A 
ATOM      9  C   LIG    1       13.538  75.356  32.075  0.00  0.00    +0.050 A 
ATOM     10  F   LIG    1       12.680  76.397  32.120  0.00  0.00    -0.120 F 
BRANCH   4  12
ATOM     11  C   LIG    1       11.245  72.594  31.568  0.00  0.00    +0.250 C 
ATOM     12  O   LIG    1       11.777  73.908  31.386  0.00  0.00    -0.300 OA
ENDBRANCH   4  12
ENDBRANCH   1   7
BRANCH   1  13
ATOM     13  N   LIG    1       17.575  74.537  34.416  0.00  0.00    -1.110 NA
ATOM     14  H   LIG    1       17.995  75.233  34.946  0.00  0.00    +0.420 HD
BRANCH  13  15
ATOM     15  C   LIG    1       17.056  73.332  35.068  0.00  0.00    +0.300 C 
BRANCH  15  16
ATOM     16  C   LIG    1       15.960  73.722  36.062  0.00  0.00    +0.160 C 
ATOM     17  C   LIG    1       14.603  73.098  35.651  0.00  0.00    +0.030 C 
ATOM     18  C   LIG    1       13.589  74.051  36.326  0.00  0.00    -0.040 C 
ATOM     19  C   LIG    1       12.498  74.429  35.302  0.00  0.00    +0.220 C 
ATOM     20  O   LIG    1       12.317  75.852  35.470  0.00  0.00    -0.370 OA
ATOM     21  C   LIG    1       13.647  76.388  35.632  0.00  0.00    +0.210 C 
ATOM     22  C   LIG    1       14.392  75.363  36.545  0.00  0.00    +0.150 C 
ATOM     23  O   LIG    1       15.711  75.142  36.012  0.00  0.00    -0.360 OA
ENDBRANCH  15  16
ENDBRANCH  13  15
ENDBRANCH   1  13
TORSDOF 5
ENDMDL
MODEL 
REMARK VINA RESULT:    -7.110      0.000      0.000
REMARK INTER + INTRA:         -10.795
REMARK INTER:                 -10.728
REMARK INTRA:                  -0.067
REMARK UNBOUND:                -0.359
REMARK  Name = ZINC000465213467
REMARK                            x       y       z     vdW  Elec       q    Type
REMARK                         _______ _______ _______ _____ _____    ______ ____
ROOT
ATOM      1  C   LIG    1       12.614  77.418  33.889  0.00  0.00    -0.120 A 
ATOM      2  C   LIG    1       11.940  78.472  33.268  0.00  0.00    +0.040 A 
ATOM      3  C   LIG    1       11.228  79.375  34.027  0.00  0.00    +0.050 A 
ATOM      4  C   LIG    1       11.179  79.236  35.413  0.00  0.00    +0.000 A 
ATOM      5  C   LIG    1       11.851  78.184  36.034  0.00  0.00    +0.060 A 
ATOM      6  C   LIG    1       12.560  77.277  35.277  0.00  0.00    +0.090 A 
ENDROOT
BRANCH   4   7
ATOM      7  C   LIG    1       10.412  80.209  36.229  0.00  0.00    +0.210 A 
ATOM      8  N   LIG    1       10.769  81.434  36.517  0.00  0.00    -0.370 NA
ATOM      9  O   LIG    1        9.921  81.966  37.202  0.00  0.00    +0.080 OA
ATOM     10  C   LIG    1        8.914  81.115  37.427  0.00  0.00    +0.200 A 
ATOM     11  N   LIG    1        9.209  79.998  36.811  0.00  0.00    -0.470 NA
BRANCH  10  12
ATOM     12  C   LIG    1        7.671  81.392  38.232  0.00  0.00    +0.200 C 
BRANCH  12  13
ATOM     13  C   LIG    1        6.644  82.107  37.353  0.00  0.00    -0.070 C 
ATOM     14  C   LIG    1        5.239  81.611  37.702  0.00  0.00    +0.020 C 
ATOM     15  C   LIG    1        6.938  81.810  35.881  0.00  0.00    +0.040 C 
ATOM     16  C   LIG    1        6.726  83.616  37.595  0.00  0.00    +0.020 C 
ENDBRANCH  12  13
ENDBRANCH  10  12
ENDBRANCH   4   7
BRANCH   1  19
ATOM     17  N   LIG    1       12.783  75.322  32.635  0.00  0.00    -0.720 N 
ATOM     18  H   LIG    1       11.854  75.147  32.851  0.00  0.00    +0.400 HD
ATOM     19  C   LIG    1       13.378  76.449  33.076  0.00  0.00    +0.560 C 
ATOM     20  O   LIG    1       14.542  76.667  32.803  0.00  0.00    -0.530 OA
BRANCH  17  21
ATOM     21  C   LIG    1       13.541  74.361  31.829  0.00  0.00    +0.280 C 
BRANCH  21  22
ATOM     22  C   LIG    1       13.773  73.085  32.640  0.00  0.00    +0.160 C 
BRANCH  22  23
ATOM     23  C   LIG    1       12.696  72.056  32.293  0.00  0.00    -0.080 C 
ATOM     24  C   LIG    1       12.143  71.443  33.581  0.00  0.00    +0.040 C 
ATOM     25  C   LIG    1       13.307  70.953  31.425  0.00  0.00    +0.030 C 
ATOM     26  C   LIG    1       11.564  72.741  31.528  0.00  0.00    +0.030 C 
ENDBRANCH  22  23
BRANCH  22  28
ATOM     27  C   LIG    1       16.121  73.506  32.402  0.00  0.00    +0.200 C 
ATOM     28  O   LIG    1       15.061  72.550  32.329  0.00  0.00    -0.370 OA
ENDBRANCH  22  28
ENDBRANCH  21  22
ENDBRANCH  17  21
ENDBRANCH   1  19
TORSDOF 8
ENDMDL
MODEL 
REMARK VINA RESULT:    -8.145      0.000      0.000
REMARK INTER + INTRA:         -10.364
REMARK INTER:                  -9.776
REMARK INTRA:                  -0.588
REMARK UNBOUND:                -0.315
REMARK  Name = ZINC000557996416
REMARK                            x       y       z     vdW  Elec       q    Type
REMARK                         _______ _______ _______ _____ _____    ______ ____
ROOT
ATOM      1  C   LIG    1       16.967  73.275  34.623  0.00  0.00    +0.250 C 
ATOM      2  C   LIG    1       16.988  73.038  33.090  0.00  0.00    +0.030 C 
ATOM      3  C   LIG    1       15.910  74.038  32.605  0.00  0.00    +0.280 C 
ATOM      4  N   LIG    1       14.867  74.005  33.647  0.00  0.00    -1.010 NA
ATOM      5  C   LIG    1       15.478  73.560  34.912  0.00  0.00    +0.280 C 
ENDROOT
BRANCH   1   7
ATOM      6  C   LIG    1       17.926  72.188  36.582  0.00  0.00    +0.520 C 
ATOM      7  N   LIG    1       17.415  72.079  35.340  0.00  0.00    -0.730 N 
ATOM      8  H   LIG    1       17.344  71.207  34.920  0.00  0.00    +0.400 HD
ATOM      9  O   LIG    1       18.015  73.278  37.106  0.00  0.00    -0.530 OA
BRANCH   6  13
ATOM     10  C   LIG    1       21.589  68.843  36.995  0.00  0.00    +0.020 C 
ATOM     11  C   LIG    1       20.223  69.275  37.530  0.00  0.00    -0.020 C 
ATOM     12  C   LIG    1       19.754  70.525  36.782  0.00  0.00    +0.050 C 
ATOM     13  C   LIG    1       18.388  70.957  37.318  0.00  0.00    -0.010 C 
ATOM     14  C   LIG    1       17.377  69.828  37.109  0.00  0.00    +0.040 C 
ATOM     15  C   LIG    1       17.845  68.579  37.857  0.00  0.00    -0.020 C 
ATOM     16  C   LIG    1       17.959  68.891  39.350  0.00  0.00    +0.020 C 
ATOM     17  C   LIG    1       19.212  68.146  37.321  0.00  0.00    +0.010 C 
ENDBRANCH   6  13
ENDBRANCH   1   7
BRANCH   4  18
ATOM     18  S   LIG    1       13.275  74.404  33.432  0.00  0.00    +2.710 S 
ATOM     19  O   LIG    1       13.249  75.455  32.476  0.00  0.00    -0.950 OA
ATOM     20  O   LIG    1       12.712  74.523  34.732  0.00  0.00    -0.950 OA
BRANCH  18  21
ATOM     21  C   LIG    1       12.488  73.022  32.675  0.00  0.00    -0.680 A 
ATOM     22  C   LIG    1       11.395  73.215  31.851  0.00  0.00    +0.120 A 
ATOM     23  C   LIG    1       10.778  72.130  31.255  0.00  0.00    -0.010 A 
ATOM     24  C   LIG    1       11.252  70.853  31.485  0.00  0.00    +0.070 A 
ATOM     25  C   LIG    1       12.346  70.659  32.309  0.00  0.00    -0.010 A 
ATOM     26  C   LIG    1       12.966  71.745  32.900  0.00  0.00    +0.120 A 
ENDBRANCH  18  21
ENDBRANCH   4  18
TORSDOF 4
ENDMDL
MODEL 
REMARK VINA RESULT:    -6.476      0.000      0.000
REMARK INTER + INTRA:         -10.751
REMARK INTER:                  -9.162
REMARK INTRA:                  -1.589
REMARK UNBOUND:                -0.868
REMARK  Name = ZINC001268699974
REMARK                            x       y       z     vdW  Elec       q    Type
REMARK                         _______ _______ _______ _____ _____    ______ ____
ROOT
ATOM      1  N   LIG    1       14.606  75.783  33.580  0.00  0.00    -0.510 N 
ATOM      2  H   LIG    1       14.961  76.258  34.397  0.00  0.00    +0.430 HD
ATOM      3  H   LIG    1       14.084  74.968  33.866  0.00  0.00    +0.430 HD
ENDROOT
BRANCH   1   4
ATOM      4  C   LIG    1       15.728  75.372  32.727  0.00  0.00    +0.270 C 
BRANCH   4   5
ATOM      5  C   LIG    1       16.012  73.884  32.938  0.00  0.00    +0.240 C 
ATOM      6  C   LIG    1       17.496  73.607  32.686  0.00  0.00    +0.060 C 
BRANCH   5   8
ATOM      7  C   LIG    1       14.020  72.587  32.404  0.00  0.00    +0.500 C 
ATOM      8  N   LIG    1       15.203  73.096  32.006  0.00  0.00    -0.750 N 
ATOM      9  H   LIG    1       15.518  72.940  31.102  0.00  0.00    +0.400 HD
ATOM     10  O   LIG    1       13.626  72.782  33.534  0.00  0.00    -0.490 OA
BRANCH   7  11
ATOM     11  C   LIG    1       13.188  71.775  31.445  0.00  0.00    +0.180 C 
ATOM     12  F   LIG    1       12.316  72.623  30.752  0.00  0.00    -0.180 F 
BRANCH  11  14
ATOM     13  C   LIG    1       11.347  70.093  31.295  0.00  0.00    +0.040 C 
ATOM     14  C   LIG    1       12.377  70.738  32.224  0.00  0.00    +0.040 C 
ENDBRANCH  11  14
ENDBRANCH   7  11
ENDBRANCH   5   8
ENDBRANCH   4   5
ENDBRANCH   1   4
BRANCH   1  15
ATOM     15  C   LIG    1       13.725  76.689  32.831  0.00  0.00    +0.280 C 
BRANCH  15  16
ATOM     16  C   LIG    1       12.838  77.463  33.809  0.00  0.00    +0.200 C 
BRANCH  16  17
ATOM     17  C   LIG    1       11.691  76.588  34.245  0.00  0.00    +0.140 A 
ATOM     18  N   LIG    1       11.391  75.402  33.774  0.00  0.00    -0.290 NA
ATOM     19  N   LIG    1       10.345  74.981  34.400  0.00  0.00    -0.110 N 
ATOM     20  N   LIG    1        9.977  75.871  35.254  0.00  0.00    -0.040 NA
ATOM     21  N   LIG    1       10.790  76.871  35.186  0.00  0.00    -0.280 NA
BRANCH  19  22
ATOM     22  C   LIG    1        9.683  73.694  34.176  0.00  0.00    +0.170 C 
ATOM     23  C   LIG    1        9.663  73.386  32.676  0.00  0.00    +0.090 C 
ATOM     24  C   LIG    1        8.248  73.761  34.702  0.00  0.00    +0.100 C 
ATOM     25  C   LIG    1       10.446  72.591  34.912  0.00  0.00    +0.090 C 
ENDBRANCH  19  22
ENDBRANCH  16  17
ENDBRANCH  15  16
ENDBRANCH   1  15
TORSDOF 9
ENDMDL
MODEL 
REMARK VINA RESULT:    -5.832      0.000      0.000
REMARK INTER + INTRA:          -8.360
REMARK INTER:                  -7.532
REMARK INTRA:                  -0.828
REMARK UNBOUND:                -0.653
REMARK  Name = ZINC000129666681
REMARK                            x       y       z     vdW  Elec       q    Type
REMARK                         _______ _______ _______ _____ _____    ______ ____
ROOT
ATOM      1  N   LIG    1       15.580  73.879  36.591  0.00  0.00    -0.760 N 
ATOM      2  H   LIG    1       14.696  73.482  36.657  0.00  0.00    +0.400 HD
ATOM      3  C   LIG    1       16.111  74.144  35.381  0.00  0.00    +0.720 C 
ATOM      4  N   LIG    1       15.415  73.859  34.264  0.00  0.00    -0.620 N 
ATOM      5  C   LIG    1       14.067  73.264  34.218  0.00  0.00    +0.240 C 
ATOM      6  C   LIG    1       13.980  72.584  32.829  0.00  0.00    +0.040 C 
ATOM      7  C   LIG    1       14.762  73.588  31.941  0.00  0.00    +0.050 C 
ATOM      8  C   LIG    1       15.873  74.095  32.886  0.00  0.00    +0.180 C 
ATOM      9  C   LIG    1       17.165  73.317  32.633  0.00  0.00    +0.040 C 
ATOM     10  O   LIG    1       17.218  74.640  35.299  0.00  0.00    -0.540 OA
ENDROOT
BRANCH   1  11
ATOM     11  C   LIG    1       16.336  74.188  37.807  0.00  0.00    +0.290 C 
ATOM     12  C   LIG    1       16.167  73.051  38.817  0.00  0.00    +0.040 C 
BRANCH  11  13
ATOM     13  C   LIG    1       15.815  75.492  38.415  0.00  0.00    -0.340 C 
BRANCH  13  14
ATOM     14  S   LIG    1       17.204  76.626  38.693  0.00  0.00    +2.420 S 
ATOM     15  O   LIG    1       18.347  76.117  38.023  0.00  0.00    -0.930 OA
ATOM     16  O   LIG    1       16.769  77.950  38.416  0.00  0.00    -0.930 OA
BRANCH  14  18
ATOM     17  C   LIG    1       16.166  76.008  41.148  0.00  0.00    +0.070 C 
ATOM     18  C   LIG    1       17.464  76.467  40.482  0.00  0.00    -0.360 C 
ENDBRANCH  14  18
ENDBRANCH  13  14
ENDBRANCH  11  13
ENDBRANCH   1  11
BRANCH   8  19
ATOM     19  C   LIG    1       16.107  75.589  32.657  0.00  0.00    +0.160 C 
BRANCH  19  20
ATOM     20  O   LIG    1       17.512  75.850  32.620  0.00  0.00    -0.530 OA
ATOM     21  H   LIG    1       18.036  75.128  32.248  0.00  0.00    +0.360 HD
ENDBRANCH  19  20
ENDBRANCH   8  19
TORSDOF 6
ENDMDL
MODEL 
REMARK VINA RESULT:    -7.045      0.000      0.000
REMARK INTER + INTRA:         -10.715
REMARK INTER:                  -9.775
REMARK INTRA:                  -0.940
REMARK UNBOUND:                -0.786
REMARK  Name = ZINC001571555266
REMARK                            x       y       z     vdW  Elec       q    Type
REMARK                         _______ _______ _______ _____ _____    ______ ____
ROOT
ATOM      1  C   LIG    1       11.443  73.923  33.990  0.00  0.00    +0.170 C 
ATOM      2  C   LIG    1       12.363  75.112  33.643  0.00  0.00    +0.290 C 
ATOM      3  N   LIG    1       12.997  74.733  32.359  0.00  0.00    -0.630 N 
ATOM      4  C   LIG    1       11.910  74.083  31.591  0.00  0.00    +0.310 C 
ATOM      5  C   LIG    1       14.273  74.935  31.975  0.00  0.00    +0.540 C 
ATOM      6  O   LIG    1       14.644  74.562  30.882  0.00  0.00    -0.490 OA
ATOM      7  C   LIG    1       11.143  73.241  32.638  0.00  0.00    -0.090 C 
ATOM      8  C   LIG    1        9.641  73.272  32.349  0.00  0.00    +0.060 C 
ATOM      9  C   LIG    1       11.656  71.800  32.641  0.00  0.00    +0.070 C 
ENDROOT
BRANCH   1  10
ATOM     10  N   LIG    1       10.200  74.402  34.607  0.00  0.00    -0.500 N 
ATOM     11  H   LIG    1       10.109  75.396  34.455  0.00  0.00    +0.420 HD
ATOM     12  H   LIG    1        9.412  73.927  34.192  0.00  0.00    +0.430 HD
BRANCH  10  13
ATOM     13  C   LIG    1       10.231  74.129  36.050  0.00  0.00    +0.160 C 
ATOM     14  C   LIG    1       10.965  72.811  36.303  0.00  0.00    +0.090 C 
BRANCH  13  15
ATOM     15  C   LIG    1        8.800  74.027  36.581  0.00  0.00    +0.070 C 
BRANCH  15  16
ATOM     16  C   LIG    1        7.981  73.111  35.670  0.00  0.00    +0.040 C 
BRANCH  16  18
ATOM     17  C   LIG    1        7.770  70.934  36.756  0.00  0.00    +0.050 C 
ATOM     18  C   LIG    1        7.236  72.104  36.509  0.00  0.00    -0.060 C 
ENDBRANCH  16  18
ENDBRANCH  15  16
ENDBRANCH  13  15
ENDBRANCH  10  13
ENDBRANCH   1  10
BRANCH   5  19
ATOM     19  C   LIG    1       15.240  75.622  32.905  0.00  0.00    +0.180 C 
BRANCH  19  20
ATOM     20  C   LIG    1       16.618  75.042  32.715  0.00  0.00    +0.010 A 
ATOM     21  N   LIG    1       17.703  75.692  32.405  0.00  0.00    -0.340 NA
ATOM     22  O   LIG    1       18.656  74.954  32.323  0.00  0.00    +0.110 OA
ATOM     23  C   LIG    1       18.318  73.682  32.575  0.00  0.00    +0.170 A 
ATOM     24  C   LIG    1       16.990  73.685  32.843  0.00  0.00    -0.060 A 
ENDBRANCH  19  20
ENDBRANCH   5  19
TORSDOF 7
ENDMDL
MODEL 
REMARK VINA RESULT:    -7.164      0.000      0.000
REMARK INTER + INTRA:         -10.008
REMARK INTER:                  -9.467
REMARK INTRA:                  -0.541
REMARK UNBOUND:                -0.959
REMARK  Name = ZINC001247841655
REMARK                            x       y       z     vdW  Elec       q    Type
REMARK                         _______ _______ _______ _____ _____    ______ ____
ROOT
ATOM      1  C   LIG    1       14.517  75.084  31.982  0.00  0.00    +0.260 C 
ENDROOT
BRANCH   1   2
ATOM      2  C   LIG    1       15.635  74.800  32.953  0.00  0.00    +0.130 A 
ATOM      3  N   LIG    1       15.570  74.028  34.008  0.00  0.00    -0.470 NA
ATOM      4  C   LIG    1       16.800  74.074  34.568  0.00  0.00    +0.230 A 
ATOM      5  N   LIG    1       17.532  74.864  33.827  0.00  0.00    -0.350 NA
ATOM      6  O   LIG    1       16.880  75.283  32.894  0.00  0.00    +0.110 OA
BRANCH   4   7
ATOM      7  C   LIG    1       17.237  73.362  35.795  0.00  0.00    -0.020 A 
ATOM      8  C   LIG    1       16.876  73.847  37.050  0.00  0.00    +0.050 A 
ATOM      9  C   LIG    1       17.284  73.182  38.189  0.00  0.00    +0.060 A 
ATOM     10  C   LIG    1       18.052  72.037  38.088  0.00  0.00    +0.030 A 
ATOM     11  C   LIG    1       18.416  71.551  36.842  0.00  0.00    +0.110 A 
ATOM     12  F   LIG    1       19.167  70.431  36.749  0.00  0.00    -0.130 F 
ATOM     13  C   LIG    1       18.008  72.206  35.695  0.00  0.00    +0.030 A 
ENDBRANCH   4   7
ENDBRANCH   1   2
BRANCH   1  14
ATOM     14  C   LIG    1       13.812  73.777  31.620  0.00  0.00    +0.260 C 
BRANCH  14  15
ATOM     15  C   LIG    1       12.399  73.806  32.145  0.00  0.00    -0.170 A 
ATOM     16  C   LIG    1       12.083  74.601  33.231  0.00  0.00    +0.040 A 
ATOM     17  C   LIG    1       10.788  74.629  33.714  0.00  0.00    +0.010 A 
ATOM     18  C   LIG    1        9.808  73.861  33.110  0.00  0.00    +0.140 A 
ATOM     19  C   LIG    1       10.126  73.065  32.022  0.00  0.00    +0.010 A 
ATOM     20  F   LIG    1        8.541  73.887  33.581  0.00  0.00    -0.120 F 
ATOM     21  C   LIG    1       11.420  73.043  31.538  0.00  0.00    +0.100 A 
ENDBRANCH  14  15
BRANCH  14  22
ATOM     22  N   LIG    1       13.788  73.620  30.160  0.00  0.00    -0.640 N 
ATOM     23  H   LIG    1       12.886  73.904  29.806  0.00  0.00    +0.440 HD
ATOM     24  H   LIG    1       14.507  74.195  29.748  0.00  0.00    +0.440 HD
ATOM     25  H   LIG    1       13.952  72.653  29.922  0.00  0.00    +0.440 HD
ENDBRANCH  14  22
ENDBRANCH   1  14
TORSDOF 5
ENDMDL
MODEL 
REMARK VINA RESULT:    -8.482      0.000      0.000
REMARK INTER + INTRA:          -9.841
REMARK INTER:                  -9.439
REMARK INTRA:                  -0.402
REMARK UNBOUND:                 0.129
REMARK  Name = ZINC000561344237
REMARK                            x       y       z     vdW  Elec       q    Type
REMARK                         _______ _______ _______ _____ _____    ______ ____
ROOT
ATOM      1  S   LIG    1       12.614  71.805  33.583  0.00  0.00    +2.700 S 
ATOM      2  O   LIG    1       12.374  70.667  32.767  0.00  0.00    -0.940 OA
ATOM      3  O   LIG    1       13.287  71.738  34.833  0.00  0.00    -0.950 OA
ENDROOT
BRANCH   1  13
ATOM      4  C   LIG    1       10.936  73.204  31.496  0.00  0.00    +0.120 C 
ATOM      5  C   LIG    1       10.347  73.151  32.883  0.00  0.00    +0.040 A 
ATOM      6  C   LIG    1        9.111  73.721  33.129  0.00  0.00    +0.020 A 
ATOM      7  C   LIG    1        8.569  73.674  34.403  0.00  0.00    +0.100 A 
ATOM      8  C   LIG    1        9.270  73.053  35.432  0.00  0.00    +0.010 A 
ATOM      9  O   LIG    1        8.532  73.141  36.578  0.00  0.00    -0.300 OA
ATOM     10  C   LIG    1        7.561  74.176  36.332  0.00  0.00    +0.440 C 
ATOM     11  C   LIG    1       10.507  72.485  35.179  0.00  0.00    +0.160 A 
ATOM     12  O   LIG    1        7.391  74.151  34.903  0.00  0.00    -0.300 OA
ATOM     13  C   LIG    1       11.041  72.530  33.904  0.00  0.00    -0.680 A 
ENDBRANCH   1  13
BRANCH   1  14
ATOM     14  N   LIG    1       13.466  72.877  32.650  0.00  0.00    -1.100 NA
ATOM     15  H   LIG    1       13.425  72.817  31.683  0.00  0.00    +0.420 HD
BRANCH  14  16
ATOM     16  C   LIG    1       14.281  73.915  33.286  0.00  0.00    +0.300 C 
ATOM     17  C   LIG    1       13.490  75.196  33.459  0.00  0.00    -0.210 A 
ATOM     18  C   LIG    1       12.522  75.570  34.366  0.00  0.00    +0.100 A 
ATOM     19  C   LIG    1       11.960  76.831  34.297  0.00  0.00    -0.040 A 
ATOM     20  C   LIG    1       12.372  77.714  33.313  0.00  0.00    +0.150 A 
ATOM     21  C   LIG    1       13.340  77.340  32.401  0.00  0.00    -0.040 A 
ATOM     22  F   LIG    1       11.827  78.950  33.246  0.00  0.00    -0.130 F 
ATOM     23  C   LIG    1       13.908  76.071  32.464  0.00  0.00    +0.160 A 
ATOM     24  O   LIG    1       14.849  75.495  31.665  0.00  0.00    -0.290 OA
ATOM     25  C   LIG    1       15.426  74.369  32.350  0.00  0.00    +0.210 C 
ATOM     26  C   LIG    1       16.654  74.796  33.156  0.00  0.00    +0.070 C 
ENDBRANCH  14  16
ENDBRANCH   1  14
TORSDOF 3
ENDMDL
MODEL 
REMARK VINA RESULT:    -7.944      0.000      0.000
REMARK INTER + INTRA:          -9.602
REMARK INTER:                  -9.293
REMARK INTRA:                  -0.309
REMARK UNBOUND:                -0.264
REMARK  Name = ZINC000188187256
REMARK                            x       y       z     vdW  Elec       q    Type
REMARK                         _______ _______ _______ _____ _____    ______ ____
ROOT
ATOM      1  C   LIG    1       10.351  79.229  35.366  0.00  0.00    -0.020 A 
ATOM      2  C   LIG    1       11.050  79.619  34.223  0.00  0.00    +0.070 A 
ATOM      3  C   LIG    1       11.826  78.703  33.545  0.00  0.00    +0.020 A 
ATOM      4  C   LIG    1       11.912  77.392  34.000  0.00  0.00    +0.130 A 
ATOM      5  C   LIG    1       11.218  77.001  35.139  0.00  0.00    +0.030 A 
ATOM      6  C   LIG    1       10.445  77.912  35.823  0.00  0.00    +0.100 A 
ENDROOT
BRANCH   1  13
ATOM      7  C   LIG    1        6.161  84.413  39.241  0.00  0.00    +0.110 C 
ATOM      8  C   LIG    1        6.674  83.289  38.378  0.00  0.00    -0.050 A 
ATOM      9  C   LIG    1        5.782  82.484  37.685  0.00  0.00    +0.030 A 
ATOM     10  C   LIG    1        6.228  81.464  36.900  0.00  0.00    +0.090 A 
ATOM     11  C   LIG    1        7.611  81.207  36.776  0.00  0.00    +0.070 A 
ATOM     12  N   LIG    1        8.229  80.255  36.056  0.00  0.00    -0.450 NA
ATOM     13  C   LIG    1        9.518  80.208  36.096  0.00  0.00    +0.140 A 
ATOM     14  S   LIG    1       10.144  81.476  37.141  0.00  0.00    +0.070 S 
ATOM     15  C   LIG    1        8.505  82.024  37.479  0.00  0.00    -0.160 A 
ATOM     16  C   LIG    1        8.029  83.066  38.272  0.00  0.00    +0.050 A 
ENDBRANCH   1  13
BRANCH   4  17
ATOM     17  N   LIG    1       12.700  76.467  33.311  0.00  0.00    -0.640 N 
ATOM     18  H   LIG    1       12.329  75.977  32.560  0.00  0.00    +0.420 HD
ATOM     19  C   LIG    1       13.976  76.254  33.689  0.00  0.00    +0.510 C 
ATOM     20  O   LIG    1       14.416  76.804  34.678  0.00  0.00    -0.500 OA
BRANCH  19  21
ATOM     21  C   LIG    1       14.858  75.335  32.884  0.00  0.00    +0.180 C 
ATOM     22  C   LIG    1       14.910  73.930  33.535  0.00  0.00    +0.110 C 
ATOM     23  C   LIG    1       15.278  73.037  32.322  0.00  0.00    +0.230 C 
ATOM     24  C   LIG    1       14.529  73.708  31.153  0.00  0.00    +0.280 C 
ATOM     25  F   LIG    1       16.660  73.050  32.101  0.00  0.00    -0.180 F 
ATOM     26  N   LIG    1       14.279  75.111  31.542  0.00  0.00    -0.500 N 
ATOM     27  H   LIG    1       14.714  75.731  30.875  0.00  0.00    +0.440 HD
ATOM     28  H   LIG    1       13.286  75.284  31.570  0.00  0.00    +0.440 HD
ENDBRANCH  19  21
ENDBRANCH   4  17
TORSDOF 3
ENDMDL
MODEL 
REMARK VINA RESULT:    -7.280      0.000      0.000
REMARK INTER + INTRA:         -11.351
REMARK INTER:                 -10.266
REMARK INTRA:                  -1.085
REMARK UNBOUND:                -1.092
REMARK  Name = ZINC000184129044
REMARK                            x       y       z     vdW  Elec       q    Type
REMARK                         _______ _______ _______ _____ _____    ______ ____
ROOT
ATOM      1  C   LIG    1       13.202  76.345  33.701  0.00  0.00    -0.030 C 
ATOM      2  C   LIG    1       13.722  76.286  35.138  0.00  0.00    +0.030 C 
ATOM      3  C   LIG    1       14.361  74.921  35.397  0.00  0.00    +0.010 C 
ATOM      4  C   LIG    1       15.547  74.726  34.446  0.00  0.00    +0.290 C 
ATOM      5  N   LIG    1       15.082  74.925  33.066  0.00  0.00    -1.000 NA
ATOM      6  C   LIG    1       14.374  76.167  32.730  0.00  0.00    +0.330 C 
ENDROOT
BRANCH   1   9
ATOM      7  N   LIG    1       11.849  78.277  34.443  0.00  0.00    -0.730 N 
ATOM      8  H   LIG    1       11.770  77.849  35.310  0.00  0.00    +0.400 HD
ATOM      9  C   LIG    1       12.545  77.679  33.456  0.00  0.00    +0.520 C 
ATOM     10  O   LIG    1       12.642  78.213  32.373  0.00  0.00    -0.530 OA
BRANCH   7  11
ATOM     11  C   LIG    1       11.209  79.574  34.206  0.00  0.00    +0.260 C 
BRANCH  11  12
ATOM     12  C   LIG    1       10.703  80.143  35.532  0.00  0.00    +0.010 C 
BRANCH  12  14
ATOM     13  C   LIG    1        8.302  80.812  35.346  0.00  0.00    +0.010 C 
ATOM     14  C   LIG    1        9.259  79.693  35.763  0.00  0.00    +0.020 C 
ENDBRANCH  12  14
ENDBRANCH  11  12
ENDBRANCH   7  11
ENDBRANCH   1   9
BRANCH   5  15
ATOM     15  S   LIG    1       15.353  73.768  31.912  0.00  0.00    +2.600 S 
ATOM     16  O   LIG    1       16.755  73.542  31.964  0.00  0.00    -0.940 OA
ATOM     17  O   LIG    1       14.739  74.291  30.742  0.00  0.00    -0.940 OA
BRANCH  15  18
ATOM     18  C   LIG    1       14.450  72.313  32.509  0.00  0.00    -0.310 C 
BRANCH  18  19
ATOM     19  C   LIG    1       13.010  72.682  32.758  0.00  0.00    -0.070 A 
ATOM     20  C   LIG    1       12.221  73.127  31.714  0.00  0.00    +0.030 A 
ATOM     21  C   LIG    1       10.899  73.466  31.941  0.00  0.00    +0.050 A 
ATOM     22  C   LIG    1       10.366  73.360  33.211  0.00  0.00    -0.110 A 
ATOM     23  C   LIG    1       11.156  72.914  34.258  0.00  0.00    +0.100 A 
ATOM     24  F   LIG    1       10.637  72.811  35.501  0.00  0.00    -0.130 F 
ATOM     25  C   LIG    1        8.926  73.730  33.457  0.00  0.00    +0.110 C 
ATOM     26  C   LIG    1       12.478  72.571  34.028  0.00  0.00    +0.000 A 
ENDBRANCH  18  19
ENDBRANCH  15  18
ENDBRANCH   5  15
TORSDOF 7
ENDMDL
MODEL 
REMARK VINA RESULT:    -6.644      0.000      0.000
REMARK INTER + INTRA:          -9.435
REMARK INTER:                  -9.042
REMARK INTRA:                  -0.393
REMARK UNBOUND:                -0.072
REMARK  Name = ZINC001457032582
REMARK                            x       y       z     vdW  Elec       q    Type
REMARK                         _______ _______ _______ _____ _____    ______ ____
ROOT
ATOM      1  C   LIG    1       11.031  72.751  32.329  0.00  0.00    +0.160 C 
ATOM      2  C   LIG    1       11.644  71.838  33.421  0.00  0.00    +0.030 C 
ATOM      3  C   LIG    1       12.557  70.893  32.602  0.00  0.00    +0.020 C 
ATOM      4  C   LIG    1       11.759  70.621  31.310  0.00  0.00    +0.020 C 
ATOM      5  C   LIG    1       10.788  71.803  31.136  0.00  0.00    +0.040 C 
ENDROOT
BRANCH   1   6
ATOM      6  N   LIG    1       11.969  73.813  31.958  0.00  0.00    -0.720 N 
ATOM      7  H   LIG    1       12.232  73.926  31.031  0.00  0.00    +0.400 HD
ATOM      8  C   LIG    1       12.465  74.634  32.905  0.00  0.00    +0.550 C 
ATOM      9  O   LIG    1       12.062  74.558  34.046  0.00  0.00    -0.520 OA
BRANCH   8  10
ATOM     10  C   LIG    1       13.521  75.648  32.546  0.00  0.00    -0.160 C 
ATOM     11  C   LIG    1       13.082  77.107  32.406  0.00  0.00    +0.070 C 
ATOM     12  C   LIG    1       13.912  76.669  33.615  0.00  0.00    +0.050 C 
BRANCH  10  13
ATOM     13  C   LIG    1       14.624  75.148  31.610  0.00  0.00    +0.070 C 
BRANCH  13  14
ATOM     14  C   LIG    1       15.501  74.136  32.352  0.00  0.00    +0.220 C 
ATOM     15  F   LIG    1       15.172  72.842  31.935  0.00  0.00    -0.220 F 
ENDBRANCH  13  14
ENDBRANCH  10  13
ENDBRANCH   8  10
ENDBRANCH   1   6
BRANCH   1  16
ATOM     16  C   LIG    1        9.709  73.351  32.814  0.00  0.00    +0.270 C 
BRANCH  16  19
ATOM     17  O   LIG    1        7.819  74.457  34.386  0.00  0.00    -0.530 OA
ATOM     18  C   LIG    1        8.551  73.660  34.935  0.00  0.00    +0.530 C 
ATOM     19  N   LIG    1        9.529  73.051  34.236  0.00  0.00    -0.720 N 
ATOM     20  H   LIG    1       10.114  72.414  34.675  0.00  0.00    +0.400 HD
BRANCH  18  21
ATOM     21  C   LIG    1        8.369  73.356  36.400  0.00  0.00    -0.040 C 
ATOM     22  C   LIG    1        7.069  72.597  36.714  0.00  0.00    +0.040 C 
ATOM     23  C   LIG    1        7.864  71.300  36.490  0.00  0.00    +0.010 C 
ATOM     24  C   LIG    1        9.123  72.100  36.867  0.00  0.00    +0.050 C 
ENDBRANCH  18  21
ENDBRANCH  16  19
ENDBRANCH   1  16
TORSDOF 7
ENDMDL
MODEL 
REMARK VINA RESULT:    -5.946      0.000      0.000
REMARK INTER + INTRA:          -7.467
REMARK INTER:                  -7.451
REMARK INTRA:                  -0.016
REMARK UNBOUND:                -0.131
REMARK  Name = ZINC001207193620
REMARK                            x       y       z     vdW  Elec       q    Type
REMARK                         _______ _______ _______ _____ _____    ______ ____
ROOT
ATOM      1  C   LIG    1       10.649  73.932  33.303  0.00  0.00    +0.650 C 
ATOM      2  N   LIG    1       11.951  74.272  33.252  0.00  0.00    -0.600 N 
ATOM      3  C   LIG    1       12.415  75.548  33.813  0.00  0.00    +0.270 C 
ATOM      4  C   LIG    1       13.552  75.268  34.801  0.00  0.00    +0.020 C 
ATOM      5  C   LIG    1       14.643  74.458  34.099  0.00  0.00    +0.000 C 
ATOM      6  C   LIG    1       14.067  73.119  33.635  0.00  0.00    +0.030 C 
ATOM      7  C   LIG    1       12.937  73.372  32.639  0.00  0.00    +0.300 C 
ATOM      8  O   LIG    1       10.279  72.871  32.838  0.00  0.00    -0.570 OA
ENDROOT
BRANCH   1   9
ATOM      9  O   LIG    1        9.756  74.767  33.867  0.00  0.00    -0.360 OA
BRANCH   9  11
ATOM     10  C   LIG    1       10.179  73.334  35.789  0.00  0.00    +0.040 C 
ATOM     11  C   LIG    1        9.291  74.432  35.201  0.00  0.00    +0.140 C 
ATOM     12  C   LIG    1        9.358  75.674  36.092  0.00  0.00    +0.080 C 
ATOM     13  C   LIG    1        7.845  73.935  35.128  0.00  0.00    +0.040 C 
ENDBRANCH   9  11
ENDBRANCH   1   9
BRANCH   5  14
ATOM     14  C   LIG    1       15.796  74.206  35.073  0.00  0.00    +0.150 C 
BRANCH  14  15
ATOM     15  N   LIG    1       17.070  74.533  34.418  0.00  0.00    -0.450 NA
ATOM     16  C   LIG    1       17.766  73.310  33.977  0.00  0.00    +0.160 C 
ATOM     17  C   LIG    1       18.103  74.038  32.694  0.00  0.00    +0.360 C 
ATOM     18  O   LIG    1       18.954  73.992  31.840  0.00  0.00    -0.410 OA
ATOM     19  C   LIG    1       16.864  74.854  32.993  0.00  0.00    +0.160 C 
ENDBRANCH  14  15
ENDBRANCH   5  14
TORSDOF 4
ENDMDL
MODEL 
REMARK VINA RESULT:    -7.368      0.000      0.000
REMARK INTER + INTRA:         -11.894
REMARK INTER:                 -11.090
REMARK INTRA:                  -0.804
REMARK UNBOUND:                -1.080
REMARK  Name = ZINC000788927663
REMARK                            x       y       z     vdW  Elec       q    Type
REMARK                         _______ _______ _______ _____ _____    ______ ____
ROOT
ATOM      1  C   LIG    1       16.969  73.347  33.003  0.00  0.00    +0.470 C 
ATOM      2  O   LIG    1       17.881  73.618  32.258  0.00  0.00    -0.490 OA
ENDROOT
BRANCH   1   3
ATOM      3  O   LIG    1       15.776  72.992  32.500  0.00  0.00    -0.320 OA
BRANCH   3   4
ATOM      4  C   LIG    1       14.643  73.838  32.826  0.00  0.00    +0.310 C 
BRANCH   4   5
ATOM      5  C   LIG    1       13.367  73.153  32.410  0.00  0.00    -0.140 A 
ATOM      6  C   LIG    1       13.347  71.914  31.916  0.00  0.00    -0.020 A 
ATOM      7  S   LIG    1       11.689  71.455  31.546  0.00  0.00    +0.130 S 
ATOM      8  C   LIG    1       11.100  73.016  32.099  0.00  0.00    -0.040 A 
ATOM      9  C   LIG    1       12.127  73.758  32.517  0.00  0.00    +0.040 A 
ENDBRANCH   4   5
BRANCH   4  10
ATOM     10  C   LIG    1       14.770  75.151  32.097  0.00  0.00    +0.470 C 
ATOM     11  O   LIG    1       14.897  75.165  30.896  0.00  0.00    -0.480 OA
BRANCH  10  13
ATOM     12  C   LIG    1       13.490  77.041  32.783  0.00  0.00    +0.290 C 
ATOM     13  O   LIG    1       14.741  76.305  32.783  0.00  0.00    -0.350 OA
ENDBRANCH  10  13
ENDBRANCH   4  10
ENDBRANCH   3   4
ENDBRANCH   1   3
BRANCH   1  14
ATOM     14  C   LIG    1       17.170  73.407  34.495  0.00  0.00    +0.370 C 
BRANCH  14  15
ATOM     15  N   LIG    1       17.449  72.062  35.005  0.00  0.00    -0.720 N 
ATOM     16  H   LIG    1       17.220  71.284  34.473  0.00  0.00    +0.410 HD
ATOM     17  C   LIG    1       18.025  71.907  36.214  0.00  0.00    +0.570 C 
ATOM     18  O   LIG    1       18.312  72.881  36.881  0.00  0.00    -0.520 OA
BRANCH  17  19
ATOM     19  C   LIG    1       18.306  70.549  36.729  0.00  0.00    -0.080 A 
ATOM     20  C   LIG    1       17.264  69.748  37.197  0.00  0.00    +0.020 A 
ATOM     21  C   LIG    1       17.533  68.480  37.676  0.00  0.00    +0.130 A 
ATOM     22  C   LIG    1       18.835  68.004  37.692  0.00  0.00    +0.000 A 
ATOM     23  C   LIG    1       19.872  68.795  37.229  0.00  0.00    +0.130 A 
ATOM     24  F   LIG    1       21.139  68.326  37.248  0.00  0.00    -0.120 F 
ATOM     25  F   LIG    1       16.526  67.703  38.130  0.00  0.00    -0.120 F 
ATOM     26  C   LIG    1       19.614  70.063  36.742  0.00  0.00    +0.060 A 
ENDBRANCH  17  19
ENDBRANCH  14  15
ENDBRANCH   1  14
TORSDOF 8
ENDMDL
MODEL 
REMARK VINA RESULT:    -6.686      0.000      0.000
REMARK INTER + INTRA:          -8.099
REMARK INTER:                  -7.886
REMARK INTRA:                  -0.213
REMARK UNBOUND:                -0.045
REMARK  Name = ZINC000740878435
REMARK                            x       y       z     vdW  Elec       q    Type
REMARK                         _______ _______ _______ _____ _____    ______ ____
ROOT
ATOM      1  C   LIG    1       12.509  73.228  33.857  0.00  0.00    +0.020 C 
ATOM      2  C   LIG    1       12.477  73.745  32.417  0.00  0.00    +0.200 C 
ATOM      3  C   LIG    1       11.306  73.098  31.669  0.00  0.00    -0.300 C 
ATOM      4  S   LIG    1       11.514  71.292  31.725  0.00  0.00    +1.230 S 
ATOM      5  C   LIG    1       13.224  71.092  31.139  0.00  0.00    -0.220 C 
ATOM      6  C   LIG    1       14.131  72.016  31.960  0.00  0.00    +0.230 C 
ATOM      7  O   LIG    1       10.622  70.684  30.800  0.00  0.00    -0.850 OA
ATOM      8  C   LIG    1        9.988  73.489  32.341  0.00  0.00    +0.070 C 
ATOM      9  N   LIG    1       13.737  73.409  31.752  0.00  0.00    -0.540 NA
ENDROOT
BRANCH   9  10
ATOM     10  C   LIG    1       14.808  74.326  32.165  0.00  0.00    +0.230 C 
BRANCH  10  11
ATOM     11  C   LIG    1       16.074  73.526  32.475  0.00  0.00    -0.340 C 
BRANCH  11  12
ATOM     12  S   LIG    1       17.405  74.661  32.957  0.00  0.00    +2.620 S 
ATOM     13  O   LIG    1       17.767  74.455  34.315  0.00  0.00    -0.960 OA
ATOM     14  O   LIG    1       17.152  75.966  32.455  0.00  0.00    -0.960 OA
BRANCH  12  15
ATOM     15  N   LIG    1       18.723  74.141  32.100  0.00  0.00    -1.250 NA
ATOM     16  H   LIG    1       18.948  74.561  31.256  0.00  0.00    +0.420 HD
ATOM     17  H   LIG    1       19.269  73.416  32.442  0.00  0.00    +0.410 HD
ENDBRANCH  12  15
ENDBRANCH  11  12
ENDBRANCH  10  11
ENDBRANCH   9  10
TORSDOF 4
ENDMDL
MODEL 
REMARK VINA RESULT:    -7.289      0.000      0.000
REMARK INTER + INTRA:         -11.394
REMARK INTER:                 -10.683
REMARK INTRA:                  -0.711
REMARK UNBOUND:                -1.122
REMARK  Name = ZINC000985066167
REMARK                            x       y       z     vdW  Elec       q    Type
REMARK                         _______ _______ _______ _____ _____    ______ ____
ROOT
ATOM      1  C   LIG    1       15.496  72.862  32.593  0.00  0.00    -0.040 C 
ATOM      2  C   LIG    1       16.827  73.612  32.767  0.00  0.00    +0.050 C 
ATOM      3  C   LIG    1       16.648  73.421  34.282  0.00  0.00    +0.250 C 
ATOM      4  C   LIG    1       15.135  73.332  34.013  0.00  0.00    +0.060 C 
ENDROOT
BRANCH   3   5
ATOM      5  N   LIG    1       17.228  72.175  34.790  0.00  0.00    -0.720 N 
ATOM      6  H   LIG    1       17.160  71.361  34.267  0.00  0.00    +0.400 HD
ATOM      7  C   LIG    1       17.855  72.160  35.982  0.00  0.00    +0.570 C 
ATOM      8  O   LIG    1       17.939  73.181  36.637  0.00  0.00    -0.520 OA
BRANCH   7   9
ATOM      9  C   LIG    1       18.440  70.904  36.495  0.00  0.00    -0.150 A 
ATOM     10  C   LIG    1       19.818  70.692  36.422  0.00  0.00    +0.040 A 
ATOM     11  C   LIG    1       20.358  69.516  36.903  0.00  0.00    +0.000 A 
ATOM     12  C   LIG    1       19.537  68.549  37.455  0.00  0.00    -0.050 A 
ATOM     13  C   LIG    1       18.172  68.753  37.530  0.00  0.00    +0.000 A 
ATOM     14  C   LIG    1       20.134  67.268  37.977  0.00  0.00    +0.090 C 
ATOM     15  C   LIG    1       17.619  69.926  37.059  0.00  0.00    +0.090 A 
ENDBRANCH   7   9
ENDBRANCH   3   5
BRANCH   1  16
ATOM     16  C   LIG    1       14.597  73.451  31.505  0.00  0.00    +0.280 C 
BRANCH  16  17
ATOM     17  N   LIG    1       13.439  72.573  31.298  0.00  0.00    -0.510 N 
ATOM     18  H   LIG    1       13.557  72.055  30.440  0.00  0.00    +0.430 HD
ATOM     19  H   LIG    1       13.362  71.929  32.071  0.00  0.00    +0.430 HD
BRANCH  17  20
ATOM     20  C   LIG    1       12.218  73.385  31.214  0.00  0.00    +0.360 C 
BRANCH  20  25
ATOM     21  C   LIG    1        9.438  73.657  33.750  0.00  0.00    +0.180 A 
ATOM     22  C   LIG    1        9.929  72.789  34.722  0.00  0.00    -0.080 A 
ATOM     23  C   LIG    1       11.137  72.157  34.509  0.00  0.00    +0.320 A 
ATOM     24  N   LIG    1       11.824  72.368  33.401  0.00  0.00    -0.490 NA
ATOM     25  C   LIG    1       11.391  73.182  32.458  0.00  0.00    +0.080 A 
ATOM     26  C   LIG    1       10.190  73.847  32.594  0.00  0.00    -0.030 A 
BRANCH  21  28
ATOM     27  C   LIG    1        7.773  74.419  35.264  0.00  0.00    +0.280 C 
ATOM     28  O   LIG    1        8.254  74.297  33.924  0.00  0.00    -0.300 OA
ENDBRANCH  21  28
ENDBRANCH  20  25
ENDBRANCH  17  20
ENDBRANCH  16  17
ENDBRANCH   1  16
TORSDOF 7
ENDMDL
MODEL 
REMARK VINA RESULT:    -6.448      0.000      0.000
REMARK INTER + INTRA:          -7.762
REMARK INTER:                  -7.568
REMARK INTRA:                  -0.194
REMARK UNBOUND:                -0.183
REMARK  Name = ZINC000845607782
REMARK                            x       y       z     vdW  Elec       q    Type
REMARK                         _______ _______ _______ _____ _____    ______ ____
ROOT
ATOM      1  N   LIG    1       16.975  72.773  34.960  0.00  0.00    -0.620 N 
ATOM      2  H   LIG    1       16.258  72.142  35.132  0.00  0.00    +0.400 HD
ATOM      3  C   LIG    1       16.727  73.899  34.261  0.00  0.00    +0.730 C 
ATOM      4  N   LIG    1       15.511  74.100  33.716  0.00  0.00    -0.630 N 
ATOM      5  C   LIG    1       15.259  75.265  32.857  0.00  0.00    +0.320 C 
ATOM      6  C   LIG    1       14.678  74.778  31.526  0.00  0.00    +0.030 C 
ATOM      7  C   LIG    1       13.440  73.920  31.797  0.00  0.00    +0.290 C 
ATOM      8  C   LIG    1       13.839  72.696  32.626  0.00  0.00    -0.040 C 
ATOM      9  C   LIG    1       12.608  71.820  32.869  0.00  0.00    +0.060 C 
ATOM     10  F   LIG    1       12.888  73.499  30.583  0.00  0.00    -0.200 F 
ATOM     11  F   LIG    1       12.496  74.673  32.504  0.00  0.00    -0.190 F 
ATOM     12  C   LIG    1       14.414  73.155  33.964  0.00  0.00    +0.300 C 
ATOM     13  O   LIG    1       17.600  74.734  34.125  0.00  0.00    -0.560 OA
ENDROOT
BRANCH   1  14
ATOM     14  O   LIG    1       18.280  72.512  35.441  0.00  0.00    -0.120 OA
BRANCH  14  15
ATOM     15  C   LIG    1       18.315  71.984  36.768  0.00  0.00    +0.210 C 
BRANCH  15  17
ATOM     16  C   LIG    1       19.958  70.221  36.376  0.00  0.00    +0.050 C 
ATOM     17  C   LIG    1       18.735  70.536  36.723  0.00  0.00    -0.140 C 
ATOM     18  C   LIG    1       17.748  69.454  37.077  0.00  0.00    +0.090 C 
ENDBRANCH  15  17
ENDBRANCH  14  15
ENDBRANCH   1  14
TORSDOF 3
ENDMDL
MODEL 
REMARK VINA RESULT:    -8.653      0.000      0.000
REMARK INTER + INTRA:         -10.947
REMARK INTER:                 -10.227
REMARK INTRA:                  -0.720
REMARK UNBOUND:                -0.776
REMARK  Name = ZINC000269975634
REMARK                            x       y       z     vdW  Elec       q    Type
REMARK                         _______ _______ _______ _____ _____    ______ ____
ROOT
ATOM      1  C   LIG    1       13.269  76.857  33.942  0.00  0.00    +0.610 C 
ATOM      2  N   LIG    1       12.951  75.804  33.162  0.00  0.00    -0.700 N 
ATOM      3  H   LIG    1       12.133  75.815  32.643  0.00  0.00    +0.410 HD
ATOM      4  O   LIG    1       14.294  76.844  34.595  0.00  0.00    -0.520 OA
ENDROOT
BRANCH   2   5
ATOM      5  C   LIG    1       13.842  74.643  33.103  0.00  0.00    +0.270 C 
ATOM      6  C   LIG    1       14.927  74.755  32.018  0.00  0.00    -0.030 C 
ATOM      7  C   LIG    1       16.358  74.779  32.596  0.00  0.00    +0.010 C 
ATOM      8  C   LIG    1       16.804  73.301  32.563  0.00  0.00    +0.200 C 
ATOM      9  O   LIG    1       15.575  72.545  32.584  0.00  0.00    -0.360 OA
ATOM     10  C   LIG    1       14.658  73.260  31.704  0.00  0.00    +0.160 C 
ATOM     11  C   LIG    1       13.267  73.470  32.308  0.00  0.00    -0.080 C 
ATOM     12  C   LIG    1       12.750  72.310  33.173  0.00  0.00    +0.040 C 
ATOM     13  C   LIG    1       11.208  72.417  33.061  0.00  0.00    +0.000 C 
ATOM     14  C   LIG    1       10.998  72.844  31.586  0.00  0.00    +0.000 C 
ATOM     15  C   LIG    1       12.164  73.817  31.304  0.00  0.00    +0.040 C 
ENDBRANCH   2   5
BRANCH   1  18
ATOM     16  C   LIG    1       11.588  77.729  36.430  0.00  0.00    +0.200 C 
ATOM     17  C   LIG    1       11.634  78.411  35.087  0.00  0.00    +0.130 A 
ATOM     18  C   LIG    1       12.371  78.026  34.002  0.00  0.00    -0.110 A 
ATOM     19  N   LIG    1       12.138  78.892  33.001  0.00  0.00    -0.200 NA
ATOM     20  N   LIG    1       11.304  79.791  33.393  0.00  0.00    -0.050 NA
ATOM     21  N   LIG    1       10.950  79.517  34.722  0.00  0.00    -0.310 N 
BRANCH  21  22
ATOM     22  C   LIG    1       10.066  80.255  35.520  0.00  0.00    +0.120 A 
ATOM     23  C   LIG    1       10.559  81.142  36.468  0.00  0.00    +0.020 A 
ATOM     24  C   LIG    1        9.684  81.868  37.253  0.00  0.00    +0.040 A 
ATOM     25  C   LIG    1        8.319  81.715  37.095  0.00  0.00    +0.030 A 
ATOM     26  C   LIG    1        7.825  80.833  36.151  0.00  0.00    +0.040 A 
ATOM     27  C   LIG    1        8.694  80.108  35.359  0.00  0.00    +0.040 A 
ENDBRANCH  21  22
ENDBRANCH   1  18
TORSDOF 3
ENDMDL
MODEL 
REMARK VINA RESULT:    -6.753      0.000      0.000
REMARK INTER + INTRA:          -9.314
REMARK INTER:                  -8.178
REMARK INTRA:                  -1.136
REMARK UNBOUND:                -0.983
REMARK  Name = ZINC000182769183
REMARK                            x       y       z     vdW  Elec       q    Type
REMARK                         _______ _______ _______ _____ _____    ______ ____
ROOT
ATOM      1  N   LIG    1       16.667  72.540  34.126  0.00  0.00    -1.050 N 
ATOM      2  H   LIG    1       16.363  71.742  33.667  0.00  0.00    +0.430 HD
ENDROOT
BRANCH   1   3
ATOM      3  C   LIG    1       16.831  72.528  35.517  0.00  0.00    +0.120 A 
ATOM      4  C   LIG    1       18.047  72.165  36.072  0.00  0.00    +0.040 A 
ATOM      5  C   LIG    1       18.206  72.155  37.446  0.00  0.00    +0.000 A 
ATOM      6  C   LIG    1       17.153  72.507  38.270  0.00  0.00    +0.040 A 
ATOM      7  C   LIG    1       15.935  72.870  37.725  0.00  0.00    -0.030 A 
ATOM      8  C   LIG    1       15.769  72.889  36.348  0.00  0.00    +0.110 A 
BRANCH   8   9
ATOM      9  N   LIG    1       14.537  73.257  35.795  0.00  0.00    -0.490 N 
ATOM     10  C   LIG    1       14.013  74.470  36.435  0.00  0.00    +0.180 C 
ATOM     11  C   LIG    1       12.744  74.924  35.711  0.00  0.00    +0.020 C 
ATOM     12  C   LIG    1       11.702  73.804  35.768  0.00  0.00    +0.010 C 
ATOM     13  C   LIG    1       12.289  72.538  35.137  0.00  0.00    +0.030 C 
ATOM     14  C   LIG    1       13.573  72.153  35.878  0.00  0.00    +0.170 C 
ENDBRANCH   8   9
ENDBRANCH   1   3
BRANCH   1  15
ATOM     15  S   LIG    1       16.995  73.918  33.267  0.00  0.00    +2.710 S 
ATOM     16  O   LIG    1       17.601  74.824  34.178  0.00  0.00    -0.950 OA
ATOM     17  O   LIG    1       17.615  73.499  32.058  0.00  0.00    -0.950 OA
BRANCH  15  21
ATOM     18  C   LIG    1       13.000  77.355  32.418  0.00  0.00    +0.180 C 
ATOM     19  C   LIG    1       13.816  76.090  32.476  0.00  0.00    -0.010 A 
ATOM     20  C   LIG    1       15.073  75.986  32.942  0.00  0.00    +0.030 A 
ATOM     21  C   LIG    1       15.448  74.628  32.812  0.00  0.00    -0.760 A 
ATOM     22  C   LIG    1       14.397  73.984  32.274  0.00  0.00    +0.140 A 
ATOM     23  C   LIG    1       14.335  72.513  31.952  0.00  0.00    +0.200 C 
ATOM     24  O   LIG    1       13.409  74.873  32.078  0.00  0.00    -0.160 OA
ENDBRANCH  15  21
ENDBRANCH   1  15
TORSDOF 4
ENDMDL
MODEL 
REMARK VINA RESULT:    -6.877      0.000      0.000
REMARK INTER + INTRA:         -10.533
REMARK INTER:                  -9.870
REMARK INTRA:                  -0.663
REMARK UNBOUND:                -0.842
REMARK  Name = ZINC000641605016
REMARK                            x       y       z     vdW  Elec       q    Type
REMARK                         _______ _______ _______ _____ _____    ______ ____
ROOT
ATOM      1  N   LIG    1       13.118  74.938  31.635  0.00  0.00    -1.120 NA
ATOM      2  H   LIG    1       12.268  75.250  31.288  0.00  0.00    +0.420 HD
ENDROOT
BRANCH   1   3
ATOM      3  S   LIG    1       13.571  73.360  31.422  0.00  0.00    +2.610 S 
ATOM      4  O   LIG    1       14.049  73.309  30.085  0.00  0.00    -0.930 OA
ATOM      5  O   LIG    1       14.434  73.092  32.519  0.00  0.00    -0.930 OA
BRANCH   3   6
ATOM      6  C   LIG    1       12.027  72.420  31.581  0.00  0.00    -0.230 C 
BRANCH   6  10
ATOM      7  C   LIG    1        9.466  73.906  33.890  0.00  0.00    +0.310 A 
ATOM      8  N   LIG    1       10.256  73.798  34.921  0.00  0.00    -0.520 NA
ATOM      9  S   LIG    1       11.705  73.109  34.372  0.00  0.00    +0.330 S 
ATOM     10  C   LIG    1       11.219  72.973  32.727  0.00  0.00    -0.180 A 
ATOM     11  C   LIG    1        9.961  73.460  32.679  0.00  0.00    -0.010 A 
BRANCH   7  13
ATOM     12  C   LIG    1        7.660  74.505  35.316  0.00  0.00    +0.260 C 
ATOM     13  O   LIG    1        8.215  74.427  34.001  0.00  0.00    -0.290 OA
ENDBRANCH   7  13
ENDBRANCH   6  10
ENDBRANCH   3   6
ENDBRANCH   1   3
BRANCH   1  14
ATOM     14  C   LIG    1       14.003  75.864  32.347  0.00  0.00    +0.360 C 
BRANCH  14  15
ATOM     15  C   LIG    1       13.175  76.907  33.052  0.00  0.00    -0.180 A 
ATOM     16  C   LIG    1       12.680  78.005  32.365  0.00  0.00    +0.370 A 
ATOM     17  N   LIG    1       11.957  78.901  33.018  0.00  0.00    -0.470 NA
ATOM     18  C   LIG    1       11.707  78.758  34.304  0.00  0.00    +0.250 A 
ATOM     19  N   LIG    1       12.160  77.728  34.989  0.00  0.00    -0.480 NA
ATOM     20  C   LIG    1       12.885  76.790  34.402  0.00  0.00    +0.360 A 
BRANCH  18  21
ATOM     21  C   LIG    1       10.879  79.801  35.010  0.00  0.00    +0.550 C 
ATOM     22  F   LIG    1       10.915  79.571  36.389  0.00  0.00    -0.150 F 
ATOM     23  F   LIG    1        9.556  79.731  34.559  0.00  0.00    -0.160 F 
ATOM     24  F   LIG    1       11.397  81.072  34.736  0.00  0.00    -0.160 F 
ENDBRANCH  18  21
ENDBRANCH  14  15
ENDBRANCH   1  14
TORSDOF 7
ENDMDL
MODEL 
REMARK VINA RESULT:    -7.941      0.000      0.000
REMARK INTER + INTRA:         -10.078
REMARK INTER:                  -9.810
REMARK INTRA:                  -0.268
REMARK UNBOUND:                -0.280
REMARK  Name = ZINC000760949901
REMARK                            x       y       z     vdW  Elec       q    Type
REMARK                         _______ _______ _______ _____ _____    ______ ____
ROOT
ATOM      1  C   LIG    1       12.081  76.416  33.927  0.00  0.00    +0.590 C 
ATOM      2  N   LIG    1       12.218  77.676  34.385  0.00  0.00    -0.630 N 
ATOM      3  H   LIG    1       13.075  78.127  34.315  0.00  0.00    +0.420 HD
ATOM      4  O   LIG    1       11.008  75.851  34.014  0.00  0.00    -0.470 OA
ENDROOT
BRANCH   2   5
ATOM      5  C   LIG    1       11.132  78.331  34.959  0.00  0.00    +0.480 A 
ATOM      6  N   LIG    1       10.608  78.017  36.132  0.00  0.00    -0.500 NA
ATOM      7  C   LIG    1        9.576  78.854  36.375  0.00  0.00    -0.030 A 
ATOM      8  C   LIG    1        8.660  79.032  37.391  0.00  0.00    +0.350 A 
ATOM      9  N   LIG    1        7.736  80.001  37.294  0.00  0.00    -0.510 N 
ATOM     10  H   LIG    1        7.098  80.112  38.018  0.00  0.00    +0.430 HD
ATOM     11  C   LIG    1        7.656  80.830  36.225  0.00  0.00    +0.230 A 
ATOM     12  C   LIG    1        8.508  80.734  35.180  0.00  0.00    +0.050 A 
ATOM     13  C   LIG    1        9.508  79.742  35.205  0.00  0.00    +0.110 A 
ATOM     14  N   LIG    1       10.493  79.355  34.400  0.00  0.00    -0.550 NA
ENDBRANCH   2   5
BRANCH   1  17
ATOM     15  C   LIG    1       15.324  75.033  32.881  0.00  0.00    -0.470 A 
ATOM     16  C   LIG    1       14.645  75.842  33.709  0.00  0.00    +0.100 A 
ATOM     17  C   LIG    1       13.232  75.724  33.320  0.00  0.00    -0.250 A 
ATOM     18  C   LIG    1       13.209  74.841  32.281  0.00  0.00    +0.250 A 
ATOM     19  O   LIG    1       14.463  74.449  32.034  0.00  0.00    -0.120 OA
BRANCH  15  20
ATOM     20  S   LIG    1       17.068  74.786  32.898  0.00  0.00    +2.590 S 
ATOM     21  O   LIG    1       17.309  73.578  32.190  0.00  0.00    -1.040 OA
ATOM     22  O   LIG    1       17.653  76.030  32.535  0.00  0.00    -1.030 OA
BRANCH  20  24
ATOM     23  C   LIG    1       17.004  73.317  35.169  0.00  0.00    +0.150 C 
ATOM     24  N   LIG    1       17.508  74.502  34.469  0.00  0.00    -1.160 NA
ENDBRANCH  20  24
ENDBRANCH  15  20
ENDBRANCH   1  17
TORSDOF 4
ENDMDL
MODEL 
REMARK VINA RESULT:    -7.139      0.000      0.000
REMARK INTER + INTRA:          -7.942
REMARK INTER:                  -8.377
REMARK INTRA:                   0.435
REMARK UNBOUND:                 0.866
REMARK  Name = ZINC000833049465
REMARK                            x       y       z     vdW  Elec       q    Type
REMARK                         _______ _______ _______ _____ _____    ______ ____
ROOT
ATOM      1  N   LIG    1       17.489  72.985  34.006  0.00  0.00    -0.650 N 
ATOM      2  H   LIG    1       18.351  72.903  33.570  0.00  0.00    +0.400 HD
ATOM      3  C   LIG    1       17.330  72.550  35.272  0.00  0.00    +0.690 C 
ATOM      4  N   LIG    1       18.368  72.000  35.931  0.00  0.00    -0.750 N 
ATOM      5  H   LIG    1       19.230  71.918  35.495  0.00  0.00    +0.400 HD
ATOM      6  O   LIG    1       16.248  72.653  35.819  0.00  0.00    -0.540 OA
ENDROOT
BRANCH   1  10
ATOM      7  C   LIG    1       14.194  76.285  32.397  0.00  0.00    +0.310 C 
ATOM      8  N   LIG    1       14.923  75.029  32.590  0.00  0.00    -0.420 N 
ATOM      9  C   LIG    1       16.001  74.855  33.396  0.00  0.00    +0.080 A 
ATOM     10  C   LIG    1       16.404  73.559  33.317  0.00  0.00    +0.060 A 
ATOM     11  C   LIG    1       15.547  72.897  32.430  0.00  0.00    +0.000 A 
ATOM     12  C   LIG    1       14.624  73.826  31.987  0.00  0.00    -0.020 A 
BRANCH  12  13
ATOM     13  C   LIG    1       13.535  73.580  31.045  0.00  0.00    +0.550 C 
ATOM     14  O   LIG    1       13.786  73.237  29.896  0.00  0.00    -0.700 OA
ATOM     15  O   LIG    1       12.371  73.717  31.403  0.00  0.00    -0.670 OA
ENDBRANCH  12  13
ENDBRANCH   1  10
BRANCH   4  16
ATOM     16  C   LIG    1       18.196  71.528  37.307  0.00  0.00    +0.280 C 
ATOM     17  C   LIG    1       17.043  70.504  37.373  0.00  0.00    +0.040 C 
ATOM     18  C   LIG    1       17.750  69.129  37.277  0.00  0.00    +0.020 C 
ATOM     19  C   LIG    1       19.038  69.348  38.110  0.00  0.00    +0.020 C 
ATOM     20  C   LIG    1       19.464  70.793  37.775  0.00  0.00    +0.050 C 
BRANCH  16  21
ATOM     21  C   LIG    1       17.905  72.691  38.220  0.00  0.00    +0.040 A 
ATOM     22  N   LIG    1       18.662  73.727  38.360  0.00  0.00    -0.480 NA
ATOM     23  C   LIG    1       18.258  74.657  39.202  0.00  0.00    +0.200 A 
ATOM     24  C   LIG    1       17.094  74.391  39.804  0.00  0.00    -0.110 A 
ATOM     25  S   LIG    1       16.520  72.834  39.212  0.00  0.00    +0.190 S 
ENDBRANCH  16  21
ENDBRANCH   4  16
TORSDOF 4
ENDMDL
MODEL 
REMARK VINA RESULT:    -7.069      0.000      0.000
REMARK INTER + INTRA:          -9.982
REMARK INTER:                 -10.160
REMARK INTRA:                   0.178
REMARK UNBOUND:                -0.226
REMARK  Name = ZINC001267870135
REMARK                            x       y       z     vdW  Elec       q    Type
REMARK                         _______ _______ _______ _____ _____    ______ ____
ROOT
ATOM      1  C   LIG    1       13.446  71.082  31.394  0.00  0.00    +0.050 C 
ATOM      2  C   LIG    1       12.715  72.419  31.539  0.00  0.00    -0.030 C 
ATOM      3  C   LIG    1       11.357  72.189  32.203  0.00  0.00    +0.040 C 
ATOM      4  C   LIG    1       11.564  71.569  33.587  0.00  0.00    +0.010 C 
ATOM      5  C   LIG    1       12.399  72.515  34.450  0.00  0.00    +0.020 C 
ATOM      6  C   LIG    1       13.758  72.745  33.787  0.00  0.00    +0.050 C 
ATOM      7  C   LIG    1       13.551  73.366  32.403  0.00  0.00    +0.170 C 
ENDROOT
BRANCH   7   8
ATOM      8  N   LIG    1       12.853  74.646  32.542  0.00  0.00    -0.740 N 
ATOM      9  H   LIG    1       12.023  74.800  32.063  0.00  0.00    +0.410 HD
ATOM     10  C   LIG    1       13.363  75.610  33.333  0.00  0.00    +0.600 C 
ATOM     11  O   LIG    1       14.348  75.383  34.010  0.00  0.00    -0.520 OA
BRANCH  10  12
ATOM     12  C   LIG    1       12.730  76.931  33.378  0.00  0.00    -0.320 A 
ATOM     13  C   LIG    1       11.964  77.458  34.436  0.00  0.00    +0.330 A 
ATOM     14  N   LIG    1       11.606  76.964  35.623  0.00  0.00    -0.450 NA
ATOM     15  C   LIG    1       10.870  77.669  36.453  0.00  0.00    +0.390 A 
ATOM     16  C   LIG    1       10.450  78.957  36.099  0.00  0.00    -0.030 A 
ATOM     17  C   LIG    1       10.811  79.466  34.893  0.00  0.00    +0.360 A 
ATOM     18  N   LIG    1       11.574  78.711  34.055  0.00  0.00    -0.300 N 
ATOM     19  N   LIG    1       12.092  78.956  32.778  0.00  0.00    -0.300 NA
ATOM     20  C   LIG    1       12.778  77.918  32.378  0.00  0.00    +0.330 A 
ENDBRANCH  10  12
ENDBRANCH   7   8
BRANCH   7  21
ATOM     21  C   LIG    1       14.911  73.596  31.739  0.00  0.00    +0.270 C 
BRANCH  21  22
ATOM     22  N   LIG    1       15.977  73.135  32.639  0.00  0.00    -0.510 N 
ATOM     23  H   LIG    1       16.396  72.297  32.264  0.00  0.00    +0.430 HD
ATOM     24  H   LIG    1       15.588  72.939  33.549  0.00  0.00    +0.420 HD
BRANCH  22  25
ATOM     25  C   LIG    1       17.002  74.182  32.760  0.00  0.00    +0.280 C 
BRANCH  25  26
ATOM     26  C   LIG    1       18.389  73.536  32.784  0.00  0.00    +0.220 C 
BRANCH  26  27
ATOM     27  O   LIG    1       19.131  73.959  31.639  0.00  0.00    -0.580 OA
ATOM     28  H   LIG    1       19.634  74.775  31.775  0.00  0.00    +0.410 HD
ENDBRANCH  26  27
ENDBRANCH  25  26
ENDBRANCH  22  25
ENDBRANCH  21  22
ENDBRANCH   7  21
TORSDOF 7
ENDMDL
MODEL 
REMARK VINA RESULT:    -6.821      0.000      0.000
REMARK INTER + INTRA:         -12.406
REMARK INTER:                 -10.658
REMARK INTRA:                  -1.747
REMARK UNBOUND:                -1.597
REMARK  Name = ZINC000839483169
REMARK                            x       y       z     vdW  Elec       q    Type
REMARK                         _______ _______ _______ _____ _____    ______ ____
ROOT
ATOM      1  C   LIG    1       14.163  73.277  31.300  0.00  0.00    +0.510 C 
ATOM      2  N   LIG    1       13.076  72.869  31.985  0.00  0.00    -0.700 N 
ATOM      3  H   LIG    1       13.085  72.873  32.955  0.00  0.00    +0.420 HD
ATOM      4  O   LIG    1       14.153  73.273  30.087  0.00  0.00    -0.500 OA
ENDROOT
BRANCH   1   7
ATOM      5  N   LIG    1       16.124  72.852  32.728  0.00  0.00    -0.700 N 
ATOM      6  H   LIG    1       15.869  71.917  32.750  0.00  0.00    +0.420 HD
ATOM      7  C   LIG    1       15.381  73.737  32.036  0.00  0.00    +0.510 C 
ATOM      8  O   LIG    1       15.699  74.908  32.009  0.00  0.00    -0.510 OA
BRANCH   5   9
ATOM      9  C   LIG    1       17.317  73.304  33.449  0.00  0.00    +0.310 C 
BRANCH   9  10
ATOM     10  C   LIG    1       17.186  72.939  34.930  0.00  0.00    -0.250 C 
BRANCH  10  11
ATOM     11  S   LIG    1       16.275  74.246  35.796  0.00  0.00    +1.260 S 
ATOM     12  O   LIG    1       17.124  74.858  36.758  0.00  0.00    -0.840 OA
BRANCH  11  14
ATOM     13  C   LIG    1       13.865  72.963  35.641  0.00  0.00    +0.060 C 
ATOM     14  C   LIG    1       14.958  73.332  36.645  0.00  0.00    -0.240 C 
ENDBRANCH  11  14
ENDBRANCH  10  11
ENDBRANCH   9  10
ENDBRANCH   5   9
ENDBRANCH   1   7
BRANCH   2  15
ATOM     15  C   LIG    1       11.884  72.418  31.264  0.00  0.00    +0.250 C 
BRANCH  15  16
ATOM     16  C   LIG    1       11.779  70.894  31.351  0.00  0.00    +0.440 C 
ATOM     17  F   LIG    1       10.545  70.482  30.839  0.00  0.00    -0.170 F 
ATOM     18  F   LIG    1       11.887  70.496  32.687  0.00  0.00    -0.180 F 
ATOM     19  F   LIG    1       12.811  70.313  30.606  0.00  0.00    -0.180 F 
ENDBRANCH  15  16
BRANCH  15  20
ATOM     20  C   LIG    1       10.640  73.052  31.891  0.00  0.00    +0.060 C 
BRANCH  20  21
ATOM     21  C   LIG    1       11.008  73.670  33.241  0.00  0.00    +0.080 C 
BRANCH  21  22
ATOM     22  C   LIG    1        9.991  73.259  34.276  0.00  0.00    -0.090 A 
ATOM     23  C   LIG    1        8.765  73.894  34.330  0.00  0.00    +0.000 A 
ATOM     24  C   LIG    1        7.833  73.517  35.278  0.00  0.00    +0.000 A 
ATOM     25  C   LIG    1        8.127  72.505  36.173  0.00  0.00    +0.000 A 
ATOM     26  C   LIG    1        9.354  71.868  36.117  0.00  0.00    +0.000 A 
ATOM     27  C   LIG    1       10.284  72.242  35.166  0.00  0.00    +0.010 A 
ENDBRANCH  21  22
ENDBRANCH  20  21
ENDBRANCH  15  20
ENDBRANCH   2  15
TORSDOF 10
ENDMDL
MODEL 
REMARK VINA RESULT:    -6.771      0.000      0.000
REMARK INTER + INTRA:          -9.034
REMARK INTER:                  -8.671
REMARK INTRA:                  -0.362
REMARK UNBOUND:                -0.283
REMARK  Name = ZINC001601967992
REMARK                            x       y       z     vdW  Elec       q    Type
REMARK                         _______ _______ _______ _____ _____    ______ ____
ROOT
ATOM      1  C   LIG    1       13.822  73.382  33.248  0.00  0.00    +0.200 C 
ATOM      2  C   LIG    1       13.080  72.157  33.795  0.00  0.00    +0.160 C 
ATOM      3  S   LIG    1       12.357  71.250  32.392  0.00  0.00    -0.190 S 
ATOM      4  C   LIG    1       11.482  72.574  31.503  0.00  0.00    +0.130 C 
ATOM      5  C   LIG    1       12.455  73.738  31.288  0.00  0.00    +0.250 C 
ATOM      6  N   LIG    1       12.875  74.279  32.581  0.00  0.00    -0.380 N 
ATOM      7  H   LIG    1       12.064  74.400  33.169  0.00  0.00    +0.410 HD
ENDROOT
BRANCH   1   8
ATOM      8  C   LIG    1       14.884  72.928  32.244  0.00  0.00    -0.040 C 
BRANCH   8  10
ATOM      9  O   LIG    1       16.479  72.980  33.990  0.00  0.00    -0.690 OA
ATOM     10  C   LIG    1       16.255  73.193  32.810  0.00  0.00    +0.500 C 
ATOM     11  O   LIG    1       17.143  73.615  32.088  0.00  0.00    -0.670 OA
ENDBRANCH   8  10
ENDBRANCH   1   8
BRANCH   6  12
ATOM     12  C   LIG    1       13.519  75.582  32.372  0.00  0.00    +0.340 C 
BRANCH  12  13
ATOM     13  C   LIG    1       12.695  76.660  33.029  0.00  0.00    -0.280 A 
ATOM     14  C   LIG    1       12.753  77.970  32.583  0.00  0.00    +0.360 A 
ATOM     15  N   LIG    1       12.015  78.889  33.186  0.00  0.00    -0.510 NA
ATOM     16  C   LIG    1       11.232  78.570  34.196  0.00  0.00    +0.390 A 
ATOM     17  N   LIG    1       11.151  77.335  34.648  0.00  0.00    -0.510 NA
ATOM     18  C   LIG    1       11.856  76.362  34.092  0.00  0.00    +0.370 A 
BRANCH  16  19
ATOM     19  C   LIG    1       10.408  79.647  34.853  0.00  0.00    +0.020 C 
ATOM     20  C   LIG    1       10.769  80.036  36.288  0.00  0.00    +0.070 C 
ATOM     21  C   LIG    1       11.091  80.986  35.134  0.00  0.00    +0.060 C 
ENDBRANCH  16  19
ENDBRANCH  12  13
ENDBRANCH   6  12
TORSDOF 5
ENDMDL
MODEL 
REMARK VINA RESULT:    -6.533      0.000      0.000
REMARK INTER + INTRA:          -9.121
REMARK INTER:                  -8.515
REMARK INTRA:                  -0.607
REMARK UNBOUND:                -0.679
REMARK  Name = ZINC001056496621
REMARK                            x       y       z     vdW  Elec       q    Type
REMARK                         _______ _______ _______ _____ _____    ______ ____
ROOT
ATOM      1  C   LIG    1       11.941  73.338  33.537  0.00  0.00    +0.490 C 
ATOM      2  N   LIG    1       12.417  74.535  33.934  0.00  0.00    -0.590 N 
ATOM      3  C   LIG    1       13.851  74.652  34.163  0.00  0.00    +0.260 C 
ATOM      4  C   LIG    1       14.340  76.013  33.659  0.00  0.00    +0.040 C 
ATOM      5  C   LIG    1       13.491  77.105  34.310  0.00  0.00    +0.020 C 
ATOM      6  C   LIG    1       12.047  77.002  33.818  0.00  0.00    +0.240 C 
ATOM      7  N   LIG    1       11.226  77.937  34.613  0.00  0.00    -0.600 N 
ATOM      8  C   LIG    1       11.080  79.255  34.372  0.00  0.00    +0.640 C 
ATOM      9  O   LIG    1       11.652  79.768  33.431  0.00  0.00    -0.510 OA
ATOM     10  C   LIG    1       10.594  77.192  35.712  0.00  0.00    +0.280 C 
ATOM     11  C   LIG    1       10.978  75.708  35.553  0.00  0.00    +0.030 C 
ATOM     12  C   LIG    1       11.473  75.611  34.098  0.00  0.00    +0.250 C 
ATOM     13  O   LIG    1       10.769  73.215  33.252  0.00  0.00    -0.510 OA
ENDROOT
BRANCH   8  14
ATOM     14  C   LIG    1       10.225  80.077  35.255  0.00  0.00    +0.140 A 
ATOM     15  N   LIG    1        8.950  80.343  35.069  0.00  0.00    -0.250 NA
ATOM     16  N   LIG    1        8.538  81.084  36.039  0.00  0.00    -0.300 N 
ATOM     17  C   LIG    1        9.567  81.306  36.876  0.00  0.00    +0.420 A 
ATOM     18  C   LIG    1        7.175  81.599  36.201  0.00  0.00    +0.370 C 
ATOM     19  N   LIG    1       10.610  80.678  36.396  0.00  0.00    -0.480 NA
ENDBRANCH   8  14
BRANCH   1  20
ATOM     20  C   LIG    1       12.866  72.151  33.447  0.00  0.00    +0.170 C 
BRANCH  20  21
ATOM     21  O   LIG    1       12.467  71.163  34.399  0.00  0.00    -0.350 OA
ATOM     22  C   LIG    1       12.737  71.519  35.757  0.00  0.00    +0.200 C 
ENDBRANCH  20  21
BRANCH  20  23
ATOM     23  C   LIG    1       12.801  71.558  32.039  0.00  0.00    +0.040 C 
BRANCH  23  25
ATOM     24  C   LIG    1       10.990  70.329  30.834  0.00  0.00    +0.020 C 
ATOM     25  C   LIG    1       11.918  70.309  32.050  0.00  0.00    +0.010 C 
ENDBRANCH  23  25
ENDBRANCH  20  23
ENDBRANCH   1  20
TORSDOF 5
ENDMDL
MODEL 
REMARK VINA RESULT:    -7.355      0.000      0.000
REMARK INTER + INTRA:         -11.101
REMARK INTER:                 -10.680
REMARK INTRA:                  -0.421
REMARK UNBOUND:                -1.380
REMARK  Name = ZINC001036348491
REMARK                            x       y       z     vdW  Elec       q    Type
REMARK                         _______ _______ _______ _____ _____    ______ ____
ROOT
ATOM      1  C   LIG    1       14.030  72.172  32.129  0.00  0.00    -0.030 C 
ATOM      2  C   LIG    1       13.519  73.199  31.116  0.00  0.00    +0.050 C 
ATOM      3  C   LIG    1       14.505  74.366  31.028  0.00  0.00    +0.020 C 
ATOM      4  C   LIG    1       14.607  75.047  32.397  0.00  0.00    +0.290 C 
ATOM      5  N   LIG    1       14.958  74.035  33.403  0.00  0.00    -0.610 N 
ATOM      6  C   LIG    1       16.020  74.212  34.213  0.00  0.00    +0.560 C 
ATOM      7  O   LIG    1       16.761  75.162  34.046  0.00  0.00    -0.490 OA
ATOM      8  C   LIG    1       14.128  72.827  33.511  0.00  0.00    +0.270 C 
ENDROOT
BRANCH   6   9
ATOM      9  C   LIG    1       16.285  73.252  35.302  0.00  0.00    -0.160 A 
ATOM     10  C   LIG    1       15.315  73.011  36.278  0.00  0.00    +0.040 A 
ATOM     11  C   LIG    1       15.569  72.114  37.292  0.00  0.00    +0.010 A 
ATOM     12  C   LIG    1       16.783  71.448  37.349  0.00  0.00    +0.060 A 
ATOM     13  C   LIG    1       17.751  71.677  36.391  0.00  0.00    -0.010 A 
ATOM     14  C   LIG    1       17.510  72.573  35.360  0.00  0.00    +0.160 A 
BRANCH  14  15
ATOM     15  O   LIG    1       18.461  72.799  34.419  0.00  0.00    -0.480 OA
ATOM     16  H   LIG    1       18.115  72.857  33.518  0.00  0.00    +0.390 HD
ENDBRANCH  14  15
ENDBRANCH   6   9
BRANCH   1  18
ATOM     17  C   LIG    1       11.952  71.295  33.203  0.00  0.00    +0.090 C 
ATOM     18  C   LIG    1       13.061  70.991  32.193  0.00  0.00    +0.180 C 
BRANCH  18  19
ATOM     19  N   LIG    1       12.468  70.772  30.867  0.00  0.00    -0.510 N 
ATOM     20  H   LIG    1       12.882  69.954  30.445  0.00  0.00    +0.430 HD
ATOM     21  H   LIG    1       12.642  71.577  30.283  0.00  0.00    +0.430 HD
BRANCH  19  22
ATOM     22  C   LIG    1       11.019  70.571  31.006  0.00  0.00    +0.400 C 
BRANCH  22  23
ATOM     23  C   LIG    1       10.584  69.434  30.117  0.00  0.00    -0.060 A 
ATOM     24  N   LIG    1       11.312  68.431  29.718  0.00  0.00    -0.330 NA
ATOM     25  O   LIG    1       10.683  67.677  29.012  0.00  0.00    +0.130 OA
ATOM     26  C   LIG    1        9.421  68.095  28.846  0.00  0.00    +0.210 A 
ATOM     27  C   LIG    1        9.300  69.243  29.555  0.00  0.00    -0.030 A 
ENDBRANCH  22  23
ENDBRANCH  19  22
ENDBRANCH  18  19
ENDBRANCH   1  18
TORSDOF 6
ENDMDL
MODEL 
REMARK VINA RESULT:    -7.613      0.000      0.000
REMARK INTER + INTRA:         -11.028
REMARK INTER:                 -10.278
REMARK INTRA:                  -0.750
REMARK UNBOUND:                -0.745
REMARK  Name = ZINC000271075021
REMARK                            x       y       z     vdW  Elec       q    Type
REMARK                         _______ _______ _______ _____ _____    ______ ____
ROOT
ATOM      1  C   LIG    1       14.906  74.062  32.252  0.00  0.00    +0.590 C 
ATOM      2  N   LIG    1       14.152  73.079  31.720  0.00  0.00    -0.710 N 
ATOM      3  H   LIG    1       14.121  72.206  32.144  0.00  0.00    +0.410 HD
ATOM      4  O   LIG    1       14.944  75.154  31.720  0.00  0.00    -0.470 OA
ENDROOT
BRANCH   1   9
ATOM      5  C   LIG    1       16.042  72.666  36.820  0.00  0.00    +0.400 C 
ATOM      6  N   LIG    1       16.183  73.206  35.465  0.00  0.00    -0.270 N 
ATOM      7  C   LIG    1       17.328  73.700  34.947  0.00  0.00    +0.300 A 
ATOM      8  C   LIG    1       17.057  74.097  33.682  0.00  0.00    -0.120 A 
ATOM      9  C   LIG    1       15.685  73.810  33.481  0.00  0.00    +0.050 A 
ATOM     10  N   LIG    1       15.238  73.273  34.599  0.00  0.00    -0.240 NA
BRANCH   8  11
ATOM     11  N   LIG    1       17.996  74.704  32.712  0.00  0.00    +0.050 N 
ATOM     12  O   LIG    1       18.017  75.912  32.558  0.00  0.00    -0.080 OA
ATOM     13  O   LIG    1       18.749  73.995  32.068  0.00  0.00    -0.190 OA
ENDBRANCH   8  11
ENDBRANCH   1   9
BRANCH   2  14
ATOM     14  C   LIG    1       13.379  73.327  30.500  0.00  0.00    +0.310 C 
BRANCH  14  15
ATOM     15  C   LIG    1       11.906  73.530  30.862  0.00  0.00    +0.210 C 
BRANCH  15  16
ATOM     16  O   LIG    1       11.435  72.395  31.592  0.00  0.00    -0.310 OA
BRANCH  16  17
ATOM     17  C   LIG    1       10.788  72.640  32.762  0.00  0.00    +0.140 A 
ATOM     18  C   LIG    1       11.256  72.083  33.943  0.00  0.00    -0.060 A 
ATOM     19  C   LIG    1       10.599  72.331  35.134  0.00  0.00    +0.080 A 
ATOM     20  C   LIG    1        9.473  73.136  35.152  0.00  0.00    -0.010 A 
ATOM     21  O   LIG    1        8.657  73.529  36.174  0.00  0.00    -0.310 OA
ATOM     22  C   LIG    1        7.926  74.662  35.670  0.00  0.00    +0.430 C 
ATOM     23  O   LIG    1        7.891  74.442  34.248  0.00  0.00    -0.310 OA
ATOM     24  C   LIG    1        9.001  73.697  33.967  0.00  0.00    +0.070 A 
ATOM     25  C   LIG    1        9.664  73.453  32.775  0.00  0.00    +0.010 A 
ENDBRANCH  16  17
ENDBRANCH  15  16
ENDBRANCH  14  15
ENDBRANCH   2  14
TORSDOF 6
ENDMDL
MODEL 
REMARK VINA RESULT:    -7.430      0.000      0.000
REMARK INTER + INTRA:         -11.146
REMARK INTER:                 -10.508
REMARK INTRA:                  -0.639
REMARK UNBOUND:                -0.675
REMARK  Name = ZINC001384577253
REMARK                            x       y       z     vdW  Elec       q    Type
REMARK                         _______ _______ _______ _____ _____    ______ ____
ROOT
ATOM      1  C   LIG    1       10.316  73.711  33.772  0.00  0.00    +0.240 C 
ATOM      2  C   LIG    1        9.755  73.375  32.369  0.00  0.00    +0.010 C 
ATOM      3  C   LIG    1       10.970  73.528  31.430  0.00  0.00    +0.020 C 
ATOM      4  C   LIG    1       12.226  73.340  32.300  0.00  0.00    -0.020 C 
ATOM      5  C   LIG    1       11.731  73.082  33.740  0.00  0.00    +0.040 C 
ENDROOT
BRANCH   1   7
ATOM      6  C   LIG    1        8.263  73.571  35.078  0.00  0.00    +0.520 C 
ATOM      7  N   LIG    1        9.497  73.094  34.819  0.00  0.00    -0.720 N 
ATOM      8  H   LIG    1        9.843  72.344  35.327  0.00  0.00    +0.400 HD
ATOM      9  O   LIG    1        7.830  74.510  34.443  0.00  0.00    -0.530 OA
BRANCH   6  10
ATOM     10  C   LIG    1        7.420  72.936  36.154  0.00  0.00    +0.050 C 
BRANCH  10  11
ATOM     11  C   LIG    1        7.643  73.673  37.476  0.00  0.00    +0.310 C 
BRANCH  11  16
ATOM     12  N   LIG    1        7.004  77.218  38.219  0.00  0.00    -0.870 N 
ATOM     13  H   LIG    1        6.560  77.508  37.407  0.00  0.00    +0.400 HD
ATOM     14  H   LIG    1        7.158  77.848  38.940  0.00  0.00    +0.420 HD
ATOM     15  C   LIG    1        7.412  75.939  38.343  0.00  0.00    +0.700 C 
ATOM     16  N   LIG    1        7.199  75.063  37.341  0.00  0.00    -0.750 N 
ATOM     17  H   LIG    1        6.752  75.353  36.531  0.00  0.00    +0.400 HD
ATOM     18  O   LIG    1        7.973  75.575  39.359  0.00  0.00    -0.590 OA
ENDBRANCH  11  16
ENDBRANCH  10  11
ENDBRANCH   6  10
ENDBRANCH   1   7
BRANCH   4  19
ATOM     19  C   LIG    1       13.036  72.144  31.798  0.00  0.00    +0.270 C 
BRANCH  19  20
ATOM     20  N   LIG    1       12.212  71.342  30.890  0.00  0.00    -0.730 N 
ATOM     21  H   LIG    1       12.121  71.604  29.960  0.00  0.00    +0.390 HD
ATOM     22  C   LIG    1       11.581  70.242  31.345  0.00  0.00    +0.590 C 
ATOM     23  O   LIG    1       11.695  69.914  32.511  0.00  0.00    -0.530 OA
BRANCH  22  24
ATOM     24  C   LIG    1       10.756  69.440  30.435  0.00  0.00    -0.060 A 
ATOM     25  C   LIG    1        9.609  69.856  29.794  0.00  0.00    +0.050 A 
ATOM     26  C   LIG    1        9.150  68.778  29.030  0.00  0.00    -0.060 A 
ATOM     27  C   LIG    1       10.007  67.746  29.213  0.00  0.00    +0.200 A 
ATOM     28  N   LIG    1       10.990  68.136  30.060  0.00  0.00    -0.540 N 
ATOM     29  H   LIG    1       11.733  67.587  30.357  0.00  0.00    +0.410 HD
ENDBRANCH  22  24
ENDBRANCH  19  20
ENDBRANCH   4  19
TORSDOF 7
ENDMDL
MODEL 
REMARK VINA RESULT:    -8.269      0.000      0.000
REMARK INTER + INTRA:         -10.396
REMARK INTER:                  -9.773
REMARK INTRA:                  -0.623
REMARK UNBOUND:                -0.194
REMARK  Name = ZINC000190154710
REMARK                            x       y       z     vdW  Elec       q    Type
REMARK                         _______ _______ _______ _____ _____    ______ ____
ROOT
ATOM      1  N   LIG    1       11.634  78.802  35.422  0.00  0.00    -0.640 N 
ATOM      2  H   LIG    1       11.938  79.675  35.716  0.00  0.00    +0.420 HD
ATOM      3  C   LIG    1       10.609  78.196  36.054  0.00  0.00    +0.700 C 
ATOM      4  N   LIG    1       10.072  78.756  37.157  0.00  0.00    -0.620 N 
ATOM      5  C   LIG    1       10.512  80.081  37.613  0.00  0.00    +0.260 C 
ATOM      6  C   LIG    1        9.282  80.981  37.771  0.00  0.00    +0.030 C 
ATOM      7  C   LIG    1        8.272  80.300  38.698  0.00  0.00    +0.000 C 
ATOM      8  C   LIG    1        7.824  78.973  38.080  0.00  0.00    +0.020 C 
ATOM      9  C   LIG    1        9.033  78.053  37.922  0.00  0.00    +0.300 C 
ATOM     10  O   LIG    1       10.168  77.146  35.629  0.00  0.00    -0.520 OA
ENDROOT
BRANCH   1  14
ATOM     11  C   LIG    1       13.475  76.851  32.692  0.00  0.00    +0.020 A 
ATOM     12  N   LIG    1       12.799  77.862  32.247  0.00  0.00    -0.220 NA
ATOM     13  N   LIG    1       12.171  78.544  33.105  0.00  0.00    -0.270 NA
ATOM     14  C   LIG    1       12.255  78.176  34.347  0.00  0.00    +0.250 A 
ATOM     15  S   LIG    1       13.251  76.785  34.441  0.00  0.00    +0.110 S 
BRANCH  11  16
ATOM     16  C   LIG    1       14.298  75.897  31.866  0.00  0.00    +0.220 C 
BRANCH  16  21
ATOM     17  C   LIG    1       12.013  70.600  32.197  0.00  0.00    +0.090 C 
ATOM     18  C   LIG    1       12.609  71.982  32.111  0.00  0.00    -0.080 A 
ATOM     19  C   LIG    1       13.971  72.157  32.261  0.00  0.00    +0.000 A 
ATOM     20  C   LIG    1       14.518  73.424  32.182  0.00  0.00    +0.010 A 
ATOM     21  C   LIG    1       13.702  74.516  31.952  0.00  0.00    -0.100 A 
ATOM     22  C   LIG    1       12.339  74.340  31.800  0.00  0.00    +0.030 A 
ATOM     23  C   LIG    1       11.793  73.072  31.875  0.00  0.00    +0.000 A 
ENDBRANCH  16  21
ENDBRANCH  11  16
ENDBRANCH   1  14
BRANCH   7  24
ATOM     24  C   LIG    1        7.057  81.211  38.885  0.00  0.00    +0.160 C 
ATOM     25  C   LIG    1        7.318  82.594  38.239  0.00  0.00    +0.010 C 
ATOM     26  C   LIG    1        5.865  83.069  37.962  0.00  0.00    +0.000 C 
ATOM     27  C   LIG    1        5.146  81.744  37.627  0.00  0.00    +0.190 C 
ATOM     28  O   LIG    1        5.921  80.676  38.187  0.00  0.00    -0.380 OA
ENDBRANCH   7  24
TORSDOF 4
ENDMDL
MODEL 
REMARK VINA RESULT:    -7.291      0.000      0.000
REMARK INTER + INTRA:          -8.395
REMARK INTER:                  -8.588
REMARK INTRA:                   0.194
REMARK UNBOUND:                 0.175
REMARK  Name = ZINC000966095281
REMARK                            x       y       z     vdW  Elec       q    Type
REMARK                         _______ _______ _______ _____ _____    ______ ____
ROOT
ATOM      1  C   LIG    1       15.347  73.006  37.545  0.00  0.00    +0.050 C 
ATOM      2  C   LIG    1       15.661  72.792  36.063  0.00  0.00    -0.020 C 
ATOM      3  C   LIG    1       15.022  73.903  35.204  0.00  0.00    +0.270 C 
ATOM      4  N   LIG    1       15.988  74.251  34.152  0.00  0.00    -0.610 N 
ATOM      5  C   LIG    1       17.179  73.397  34.303  0.00  0.00    +0.260 C 
ATOM      6  C   LIG    1       15.814  75.197  33.208  0.00  0.00    +0.620 C 
ATOM      7  O   LIG    1       16.686  75.401  32.384  0.00  0.00    -0.510 OA
ATOM      8  C   LIG    1       17.178  72.967  35.793  0.00  0.00    +0.250 C 
ENDROOT
BRANCH   6   9
ATOM      9  C   LIG    1       14.575  75.980  33.174  0.00  0.00    -0.080 A 
ATOM     10  C   LIG    1       13.629  75.943  32.190  0.00  0.00    +0.050 A 
ATOM     11  C   LIG    1       12.620  76.844  32.565  0.00  0.00    -0.060 A 
ATOM     12  C   LIG    1       12.991  77.386  33.746  0.00  0.00    +0.200 A 
ATOM     13  O   LIG    1       14.166  76.859  34.113  0.00  0.00    -0.160 OA
ENDBRANCH   6   9
BRANCH   8  14
ATOM     14  N   LIG    1       17.900  71.706  35.977  0.00  0.00    -0.720 N 
ATOM     15  H   LIG    1       17.703  70.946  35.407  0.00  0.00    +0.400 HD
ATOM     16  C   LIG    1       18.839  71.601  36.938  0.00  0.00    +0.560 C 
ATOM     17  O   LIG    1       19.087  72.551  37.651  0.00  0.00    -0.520 OA
BRANCH  16  18
ATOM     18  C   LIG    1       19.583  70.304  37.128  0.00  0.00    -0.160 C 
ATOM     19  C   LIG    1       20.047  69.956  38.544  0.00  0.00    -0.090 C 
ATOM     20  C   LIG    1       19.720  70.951  39.659  0.00  0.00    +0.060 C 
ATOM     21  C   LIG    1       21.378  69.215  38.690  0.00  0.00    +0.080 C 
ATOM     22  C   LIG    1       20.484  69.885  35.966  0.00  0.00    +0.080 C 
ATOM     23  C   LIG    1       18.879  69.194  37.912  0.00  0.00    -0.080 C 
ATOM     24  C   LIG    1       19.133  67.750  37.475  0.00  0.00    +0.070 C 
ATOM     25  C   LIG    1       17.475  69.486  38.444  0.00  0.00    +0.080 C 
ENDBRANCH  16  18
ENDBRANCH   8  14
TORSDOF 3
ENDMDL
MODEL 
REMARK VINA RESULT:    -7.618      0.000      0.000
REMARK INTER + INTRA:         -10.644
REMARK INTER:                 -10.227
REMARK INTRA:                  -0.418
REMARK UNBOUND:                -0.800
REMARK  Name = ZINC000658678912
REMARK                            x       y       z     vdW  Elec       q    Type
REMARK                         _______ _______ _______ _____ _____    ______ ____
ROOT
ATOM      1  C   LIG    1       16.261  73.861  32.721  0.00  0.00    +0.510 C 
ATOM      2  N   LIG    1       15.043  74.258  32.305  0.00  0.00    -0.580 N 
ATOM      3  C   LIG    1       14.535  73.898  30.971  0.00  0.00    +0.310 C 
ATOM      4  C   LIG    1       13.312  73.002  31.159  0.00  0.00    +0.090 C 
ATOM      5  C   LIG    1       12.369  73.590  32.176  0.00  0.00    -0.120 A 
ATOM      6  C   LIG    1       11.047  73.152  32.158  0.00  0.00    +0.130 A 
ATOM      7  C   LIG    1       10.133  73.643  33.070  0.00  0.00    -0.040 A 
ATOM      8  C   LIG    1       10.533  74.577  34.010  0.00  0.00    +0.130 A 
ATOM      9  C   LIG    1       11.844  75.014  34.025  0.00  0.00    -0.010 A 
ATOM     10  F   LIG    1        9.646  75.059  34.908  0.00  0.00    -0.130 F 
ATOM     11  F   LIG    1       10.656  72.240  31.242  0.00  0.00    -0.130 F 
ATOM     12  C   LIG    1       12.762  74.526  33.106  0.00  0.00    -0.040 A 
ATOM     13  C   LIG    1       14.166  75.060  33.165  0.00  0.00    +0.350 C 
ATOM     14  O   LIG    1       16.980  73.226  31.977  0.00  0.00    -0.510 OA
ENDROOT
BRANCH   1  16
ATOM     15  O   LIG    1       17.579  75.054  34.258  0.00  0.00    -0.510 OA
ATOM     16  C   LIG    1       16.728  74.203  34.100  0.00  0.00    +0.510 C 
ATOM     17  N   LIG    1       16.201  73.570  35.166  0.00  0.00    -0.690 N 
ATOM     18  H   LIG    1       15.523  72.889  35.040  0.00  0.00    +0.420 HD
BRANCH  17  19
ATOM     19  C   LIG    1       16.655  73.909  36.517  0.00  0.00    +0.310 C 
BRANCH  19  20
ATOM     20  C   LIG    1       17.171  72.650  37.214  0.00  0.00    +0.190 C 
BRANCH  20  21
ATOM     21  O   LIG    1       18.582  72.541  37.020  0.00  0.00    -0.340 OA
BRANCH  21  22
ATOM     22  C   LIG    1       18.985  71.358  36.327  0.00  0.00    +0.160 C 
ATOM     23  C   LIG    1       18.267  70.053  36.680  0.00  0.00    +0.080 C 
ATOM     24  C   LIG    1       19.711  70.280  37.133  0.00  0.00    +0.190 C 
ATOM     25  F   LIG    1       19.930  70.527  38.493  0.00  0.00    -0.150 F 
ATOM     26  F   LIG    1       20.714  69.552  36.483  0.00  0.00    -0.160 F 
ENDBRANCH  21  22
ENDBRANCH  20  21
ENDBRANCH  19  20
ENDBRANCH  17  19
ENDBRANCH   1  16
TORSDOF 5
ENDMDL
MODEL 
REMARK VINA RESULT:    -7.426      0.000      0.000
REMARK INTER + INTRA:         -10.393
REMARK INTER:                  -9.944
REMARK INTRA:                  -0.449
REMARK UNBOUND:                -0.145
REMARK  Name = ZINC001070587872
REMARK                            x       y       z     vdW  Elec       q    Type
REMARK                         _______ _______ _______ _____ _____    ______ ____
ROOT
ATOM      1  C   LIG    1       16.169  73.414  33.247  0.00  0.00    +0.160 A 
ATOM      2  N   LIG    1       17.169  74.249  33.314  0.00  0.00    -0.270 NA
ATOM      3  N   LIG    1       17.589  74.325  34.527  0.00  0.00    -0.250 NA
ATOM      4  C   LIG    1       16.874  73.542  35.289  0.00  0.00    +0.190 A 
ATOM      5  N   LIG    1       15.950  72.946  34.500  0.00  0.00    -0.570 N 
ATOM      6  H   LIG    1       15.272  72.307  34.773  0.00  0.00    +0.430 HD
ENDROOT
BRANCH   4   7
ATOM      7  C   LIG    1       17.043  73.344  36.774  0.00  0.00    +0.200 C 
ATOM      8  C   LIG    1       16.930  74.694  37.486  0.00  0.00    +0.250 C 
ATOM      9  O   LIG    1       17.165  74.511  38.885  0.00  0.00    -0.380 OA
ATOM     10  C   LIG    1       18.446  73.946  39.184  0.00  0.00    +0.220 C 
ATOM     11  C   LIG    1       18.574  72.588  38.489  0.00  0.00    +0.180 C 
ATOM     12  N   LIG    1       18.366  72.761  37.044  0.00  0.00    -0.510 NA
BRANCH  12  13
ATOM     13  C   LIG    1       18.537  71.487  36.331  0.00  0.00    +0.190 C 
BRANCH  13  14
ATOM     14  C   LIG    1       19.967  71.391  35.797  0.00  0.00    +0.190 C 
BRANCH  14  15
ATOM     15  O   LIG    1       20.129  72.296  34.703  0.00  0.00    -0.570 OA
ATOM     16  H   LIG    1       21.027  72.642  34.607  0.00  0.00    +0.380 HD
ENDBRANCH  14  15
ENDBRANCH  13  14
ENDBRANCH  12  13
ENDBRANCH   4   7
BRANCH   1  17
ATOM     17  C   LIG    1       15.396  73.044  32.007  0.00  0.00    +0.410 C 
BRANCH  17  19
ATOM     18  C   LIG    1       12.974  73.194  31.796  0.00  0.00    +0.540 C 
ATOM     19  N   LIG    1       14.045  72.623  32.382  0.00  0.00    -0.730 N 
ATOM     20  H   LIG    1       13.920  71.932  33.053  0.00  0.00    +0.400 HD
ATOM     21  O   LIG    1       13.128  74.057  30.958  0.00  0.00    -0.530 OA
BRANCH  18  27
ATOM     22  C   LIG    1        9.478  73.533  33.432  0.00  0.00    +0.050 C 
ATOM     23  C   LIG    1       11.008  73.528  33.384  0.00  0.00    -0.070 C 
ATOM     24  C   LIG    1       11.648  72.452  34.277  0.00  0.00    +0.030 C 
ATOM     25  C   LIG    1       11.553  71.505  33.070  0.00  0.00    +0.050 C 
ATOM     26  C   LIG    1       11.613  74.921  33.568  0.00  0.00    +0.030 C 
ATOM     27  C   LIG    1       11.582  72.760  32.183  0.00  0.00    -0.040 C 
ENDBRANCH  18  27
ENDBRANCH  17  19
ENDBRANCH   1  17
TORSDOF 7
ENDMDL
MODEL 
REMARK VINA RESULT:    -7.253      0.000      0.000
REMARK INTER + INTRA:         -10.373
REMARK INTER:                  -9.577
REMARK INTRA:                  -0.796
REMARK UNBOUND:                -0.787
REMARK  Name = ZINC000451751753
REMARK                            x       y       z     vdW  Elec       q    Type
REMARK                         _______ _______ _______ _____ _____    ______ ____
ROOT
ATOM      1  C   LIG    1       16.390  74.640  34.228  0.00  0.00    +0.520 C 
ATOM      2  N   LIG    1       15.983  74.033  35.361  0.00  0.00    -0.730 N 
ATOM      3  H   LIG    1       15.036  73.908  35.530  0.00  0.00    +0.400 HD
ATOM      4  O   LIG    1       17.574  74.796  34.016  0.00  0.00    -0.510 OA
ENDROOT
BRANCH   2   5
ATOM      5  C   LIG    1       16.969  73.563  36.335  0.00  0.00    +0.280 C 
ATOM      6  C   LIG    1       17.024  74.535  37.515  0.00  0.00    +0.060 C 
BRANCH   5   7
ATOM      7  C   LIG    1       16.574  72.195  36.830  0.00  0.00    -0.080 A 
ATOM      8  C   LIG    1       17.528  71.166  36.900  0.00  0.00    -0.040 A 
ATOM      9  C   LIG    1       18.863  71.381  36.515  0.00  0.00    +0.020 A 
ATOM     10  C   LIG    1       19.759  70.360  36.597  0.00  0.00    +0.010 A 
ATOM     11  C   LIG    1       19.374  69.101  37.057  0.00  0.00    +0.000 A 
ATOM     12  C   LIG    1       18.091  68.857  37.437  0.00  0.00    +0.020 A 
ATOM     13  C   LIG    1       17.137  69.886  37.367  0.00  0.00    -0.050 A 
ATOM     14  C   LIG    1       15.803  69.672  37.752  0.00  0.00    +0.020 A 
ATOM     15  C   LIG    1       14.906  70.693  37.672  0.00  0.00    +0.010 A 
ATOM     16  C   LIG    1       15.291  71.952  37.217  0.00  0.00    +0.020 A 
ENDBRANCH   5   7
ENDBRANCH   2   5
BRANCH   1  17
ATOM     17  C   LIG    1       15.375  75.124  33.225  0.00  0.00    +0.200 C 
BRANCH  17  20
ATOM     18  C   LIG    1       12.519  73.108  32.006  0.00  0.00    +0.180 C 
ATOM     19  C   LIG    1       13.224  73.994  33.055  0.00  0.00    +0.160 C 
ATOM     20  N   LIG    1       14.656  73.973  32.661  0.00  0.00    -0.480 NA
ATOM     21  C   LIG    1       14.628  74.040  31.177  0.00  0.00    +0.170 C 
ATOM     22  C   LIG    1       13.442  73.135  30.769  0.00  0.00    +0.180 C 
BRANCH  18  24
ATOM     23  C   LIG    1       10.205  73.291  32.600  0.00  0.00    +0.210 C 
ATOM     24  O   LIG    1       11.237  73.649  31.680  0.00  0.00    -0.380 OA
ENDBRANCH  18  24
BRANCH  22  25
ATOM     25  O   LIG    1       13.904  71.820  30.460  0.00  0.00    -0.560 OA
ATOM     26  H   LIG    1       13.291  71.305  29.916  0.00  0.00    +0.380 HD
ENDBRANCH  22  25
ENDBRANCH  17  20
ENDBRANCH   1  17
TORSDOF 6
ENDMDL
MODEL 
REMARK VINA RESULT:    -7.485      0.000      0.000
REMARK INTER + INTRA:          -8.655
REMARK INTER:                  -8.644
REMARK INTRA:                  -0.010
REMARK UNBOUND:                 0.580
REMARK  Name = ZINC001049112297
REMARK                            x       y       z     vdW  Elec       q    Type
REMARK                         _______ _______ _______ _____ _____    ______ ____
ROOT
ATOM      1  C   LIG    1       12.729  77.089  33.370  0.00  0.00    +0.550 C 
ATOM      2  N   LIG    1       11.910  77.883  34.087  0.00  0.00    -0.620 N 
ATOM      3  C   LIG    1       11.370  77.607  35.428  0.00  0.00    +0.280 C 
ATOM      4  C   LIG    1       11.209  78.971  36.120  0.00  0.00    +0.010 C 
ATOM      5  C   LIG    1        9.805  79.051  36.755  0.00  0.00    +0.290 C 
ATOM      6  N   LIG    1        9.313  80.411  36.415  0.00  0.00    -0.380 N 
ATOM      7  C   LIG    1        9.770  80.623  35.018  0.00  0.00    +0.270 C 
ATOM      8  H   LIG    1        9.724  81.097  37.029  0.00  0.00    +0.440 HD
ATOM      9  C   LIG    1       11.214  80.014  34.973  0.00  0.00    +0.020 C 
ATOM     10  C   LIG    1       11.384  79.197  33.684  0.00  0.00    +0.290 C 
ATOM     11  O   LIG    1       13.181  77.480  32.314  0.00  0.00    -0.510 OA
ENDROOT
BRANCH   1  12
ATOM     12  C   LIG    1       13.086  75.717  33.879  0.00  0.00    +0.080 C 
ATOM     13  C   LIG    1       14.607  75.555  33.889  0.00  0.00    +0.080 C 
BRANCH  12  20
ATOM     14  C   LIG    1       14.387  74.385  31.223  0.00  0.00    +0.180 C 
ATOM     15  C   LIG    1       13.036  74.090  31.819  0.00  0.00    +0.040 A 
ATOM     16  N   LIG    1       12.154  73.243  31.371  0.00  0.00    -0.360 NA
ATOM     17  O   LIG    1       11.163  73.225  32.064  0.00  0.00    +0.110 OA
ATOM     18  C   LIG    1       11.262  74.083  33.089  0.00  0.00    -0.020 A 
ATOM     19  C   LIG    1       10.229  74.334  34.157  0.00  0.00    +0.190 C 
ATOM     20  C   LIG    1       12.476  74.672  32.979  0.00  0.00    -0.200 A 
ENDBRANCH  12  20
ENDBRANCH   1  12
BRANCH   6  21
ATOM     21  C   LIG    1        7.848  80.461  36.492  0.00  0.00    +0.290 C 
BRANCH  21  22
ATOM     22  C   LIG    1        7.370  81.826  36.067  0.00  0.00    +0.510 C 
ATOM     23  O   LIG    1        6.724  81.954  35.049  0.00  0.00    -0.530 OA
ATOM     24  N   LIG    1        7.662  82.906  36.819  0.00  0.00    -0.830 N 
ATOM     25  H   LIG    1        7.355  83.786  36.547  0.00  0.00    +0.420 HD
ATOM     26  H   LIG    1        8.179  82.805  37.634  0.00  0.00    +0.410 HD
ENDBRANCH  21  22
ENDBRANCH   6  21
TORSDOF 4
ENDMDL
MODEL 
REMARK VINA RESULT:    -7.777      0.000      0.000
REMARK INTER + INTRA:          -9.936
REMARK INTER:                  -9.493
REMARK INTRA:                  -0.443
REMARK UNBOUND:                -0.340
REMARK  Name = ZINC000320842263
REMARK                            x       y       z     vdW  Elec       q    Type
REMARK                         _______ _______ _______ _____ _____    ______ ____
ROOT
ATOM      1  C   LIG    1       16.801  72.818  37.043  0.00  0.00    +0.250 C 
ATOM      2  C   LIG    1       15.684  73.152  36.037  0.00  0.00    +0.340 C 
ATOM      3  N   LIG    1       16.753  73.197  35.019  0.00  0.00    -1.040 NA
ATOM      4  C   LIG    1       17.601  72.303  35.831  0.00  0.00    +0.320 C 
ENDROOT
BRANCH   1   7
ATOM      5  C   LIG    1       17.720  75.998  38.497  0.00  0.00    -0.080 A 
ATOM      6  C   LIG    1       16.802  75.194  37.858  0.00  0.00    +0.220 A 
ATOM      7  N   LIG    1       17.392  73.997  37.681  0.00  0.00    -0.360 N 
ATOM      8  N   LIG    1       18.680  74.093  38.224  0.00  0.00    -0.100 NA
ATOM      9  N   LIG    1       18.843  75.283  38.690  0.00  0.00    -0.200 NA
BRANCH   5  11
ATOM     10  O   LIG    1       17.968  78.304  38.210  0.00  0.00    -0.670 OA
ATOM     11  C   LIG    1       17.512  77.399  38.895  0.00  0.00    +0.560 C 
ATOM     12  O   LIG    1       16.877  77.660  39.909  0.00  0.00    -0.670 OA
ENDBRANCH   5  11
ENDBRANCH   1   7
BRANCH   3  13
ATOM     13  S   LIG    1       16.930  73.948  33.554  0.00  0.00    +2.720 S 
ATOM     14  O   LIG    1       17.444  72.969  32.661  0.00  0.00    -0.950 OA
ATOM     15  O   LIG    1       17.582  75.183  33.812  0.00  0.00    -0.950 OA
BRANCH  13  16
ATOM     16  C   LIG    1       15.314  74.349  32.975  0.00  0.00    -0.660 A 
ATOM     17  C   LIG    1       14.467  73.346  32.544  0.00  0.00    +0.130 A 
ATOM     18  C   LIG    1       13.198  73.660  32.089  0.00  0.00    +0.010 A 
ATOM     19  C   LIG    1       12.779  74.979  32.065  0.00  0.00    +0.120 A 
ATOM     20  C   LIG    1       13.629  75.982  32.498  0.00  0.00    -0.040 A 
ATOM     21 CL   LIG    1       13.103  77.636  32.470  0.00  0.00    -0.050 Cl
ATOM     22 CL   LIG    1       12.133  72.402  31.547  0.00  0.00    -0.030 Cl
ATOM     23  C   LIG    1       14.895  75.665  32.958  0.00  0.00    +0.130 A 
ENDBRANCH  13  16
ENDBRANCH   3  13
TORSDOF 4
ENDMDL
MODEL 
REMARK VINA RESULT:    -5.849      0.000      0.000
REMARK INTER + INTRA:         -11.843
REMARK INTER:                 -10.479
REMARK INTRA:                  -1.365
REMARK UNBOUND:                -1.548
REMARK  Name = ZINC001076821104
REMARK                            x       y       z     vdW  Elec       q    Type
REMARK                         _______ _______ _______ _____ _____    ______ ____
ROOT
ATOM      1  C   LIG    1       15.582  73.485  32.091  0.00  0.00    +0.260 C 
ENDROOT
BRANCH   1   3
ATOM      2  C   LIG    1       13.473  72.518  31.345  0.00  0.00    +0.490 C 
ATOM      3  N   LIG    1       14.574  72.422  32.117  0.00  0.00    -0.720 N 
ATOM      4  H   LIG    1       14.699  71.650  32.689  0.00  0.00    +0.400 HD
ATOM      5  O   LIG    1       13.317  73.485  30.630  0.00  0.00    -0.510 OA
BRANCH   2   6
ATOM      6  C   LIG    1       12.437  71.425  31.372  0.00  0.00    +0.190 C 
ATOM      7  F   LIG    1       12.952  70.312  32.046  0.00  0.00    -0.180 F 
BRANCH   6   8
ATOM      8  C   LIG    1       11.186  71.926  32.097  0.00  0.00    +0.190 C 
BRANCH   8   9
ATOM      9  N   LIG    1       11.583  72.709  33.275  0.00  0.00    -0.530 NA
BRANCH   9  11
ATOM     10  C   LIG    1        9.368  73.618  32.763  0.00  0.00    +0.040 C 
ATOM     11  C   LIG    1       10.710  73.878  33.450  0.00  0.00    +0.170 C 
ENDBRANCH   9  11
BRANCH   9  12
ATOM     12  C   LIG    1       11.593  71.873  34.483  0.00  0.00    +0.150 C 
ATOM     13  C   LIG    1       12.906  72.085  35.239  0.00  0.00    +0.040 C 
ENDBRANCH   9  12
ENDBRANCH   8   9
ENDBRANCH   6   8
ENDBRANCH   2   6
ENDBRANCH   1   3
BRANCH   1  14
ATOM     14  C   LIG    1       15.803  74.013  33.510  0.00  0.00    +0.030 C 
BRANCH  14  15
ATOM     15  C   LIG    1       17.261  73.789  33.916  0.00  0.00    +0.240 C 
ATOM     16  C   LIG    1       18.141  73.762  32.666  0.00  0.00    +0.030 C 
BRANCH  15  17
ATOM     17  N   LIG    1       17.379  72.512  34.625  0.00  0.00    -0.730 N 
ATOM     18  H   LIG    1       17.313  71.678  34.135  0.00  0.00    +0.400 HD
ATOM     19  C   LIG    1       17.581  72.497  35.958  0.00  0.00    +0.510 C 
ATOM     20  O   LIG    1       17.663  73.540  36.570  0.00  0.00    -0.540 OA
BRANCH  19  21
ATOM     21  C   LIG    1       17.703  71.184  36.687  0.00  0.00    +0.040 C 
BRANCH  21  22
ATOM     22  C   LIG    1       19.148  70.989  37.149  0.00  0.00    +0.040 C 
BRANCH  22  23
ATOM     23  C   LIG    1       19.590  69.554  36.854  0.00  0.00    +0.040 C 
BRANCH  23  24
ATOM     24  C   LIG    1       20.755  69.181  37.772  0.00  0.00    -0.050 C 
ATOM     25  C   LIG    1       21.112  67.697  37.894  0.00  0.00    +0.000 C 
ATOM     26  C   LIG    1       22.028  68.643  37.115  0.00  0.00    +0.000 C 
ENDBRANCH  23  24
ENDBRANCH  22  23
ENDBRANCH  21  22
ENDBRANCH  19  21
ENDBRANCH  15  17
ENDBRANCH  14  15
ENDBRANCH   1  14
TORSDOF 13
ENDMDL
MODEL 
REMARK VINA RESULT:    -6.308      0.000      0.000
REMARK INTER + INTRA:         -10.484
REMARK INTER:                  -8.904
REMARK INTRA:                  -1.581
REMARK UNBOUND:                -1.226
REMARK  Name = ZINC001512221425
REMARK                            x       y       z     vdW  Elec       q    Type
REMARK                         _______ _______ _______ _____ _____    ______ ____
ROOT
ATOM      1  C   LIG    1       10.722  73.610  33.637  0.00  0.00    +0.240 C 
ATOM      2  C   LIG    1        9.932  73.448  32.337  0.00  0.00    +0.030 C 
ENDROOT
BRANCH   1   3
ATOM      3  N   LIG    1       11.593  74.785  33.536  0.00  0.00    -0.730 N 
ATOM      4  H   LIG    1       12.349  74.777  32.928  0.00  0.00    +0.400 HD
ATOM      5  C   LIG    1       11.342  75.876  34.287  0.00  0.00    +0.530 C 
ATOM      6  O   LIG    1       10.344  75.923  34.974  0.00  0.00    -0.500 OA
BRANCH   5   7
ATOM      7  C   LIG    1       12.303  77.036  34.273  0.00  0.00    -0.220 C 
ATOM      8  C   LIG    1       13.066  77.306  32.974  0.00  0.00    +0.130 C 
ATOM      9  C   LIG    1       11.938  78.245  33.407  0.00  0.00    +0.110 C 
BRANCH   7  10
ATOM     10  C   LIG    1       13.032  77.305  35.590  0.00  0.00    +0.300 C 
BRANCH  10  11
ATOM     11  N   LIG    1       13.202  76.043  36.323  0.00  0.00    -0.390 N 
ATOM     12  C   LIG    1       12.980  76.276  37.757  0.00  0.00    +0.320 C 
ATOM     13  C   LIG    1       14.564  75.534  36.114  0.00  0.00    +0.320 C 
ATOM     14  H   LIG    1       12.535  75.366  35.985  0.00  0.00    +0.420 HD
ENDBRANCH  10  11
ENDBRANCH   7  10
ENDBRANCH   5   7
ENDBRANCH   1   3
BRANCH   1  15
ATOM     15  C   LIG    1       11.575  72.363  33.875  0.00  0.00    +0.040 C 
BRANCH  15  17
ATOM     16  C   LIG    1       12.347  70.604  32.276  0.00  0.00    +0.040 C 
ATOM     17  C   LIG    1       12.434  72.088  32.638  0.00  0.00    +0.210 C 
BRANCH  17  18
ATOM     18  N   LIG    1       13.827  72.440  32.923  0.00  0.00    -0.720 N 
ATOM     19  H   LIG    1       14.346  71.904  33.542  0.00  0.00    +0.410 HD
ATOM     20  C   LIG    1       14.388  73.510  32.324  0.00  0.00    +0.610 C 
ATOM     21  O   LIG    1       13.736  74.182  31.548  0.00  0.00    -0.570 OA
BRANCH  20  22
ATOM     22  C   LIG    1       15.789  73.864  32.611  0.00  0.00    -0.310 A 
ATOM     23  C   LIG    1       16.838  72.984  32.786  0.00  0.00    +0.330 A 
ATOM     24  N   LIG    1       17.939  73.713  33.027  0.00  0.00    -0.460 N 
ATOM     25  H   LIG    1       18.828  73.361  33.189  0.00  0.00    +0.450 HD
ATOM     26  N   LIG    1       17.588  75.068  33.005  0.00  0.00    -0.280 NA
ATOM     27  C   LIG    1       16.312  75.170  32.751  0.00  0.00    +0.280 A 
ENDBRANCH  20  22
ENDBRANCH  17  18
ENDBRANCH  15  17
ENDBRANCH   1  15
TORSDOF 8
ENDMDL
MODEL 
REMARK VINA RESULT:    -7.267      0.000      0.000
REMARK INTER + INTRA:         -10.241
REMARK INTER:                  -9.557
REMARK INTRA:                  -0.684
REMARK UNBOUND:                -0.851
REMARK  Name = ZINC001602546181
REMARK                            x       y       z     vdW  Elec       q    Type
REMARK                         _______ _______ _______ _____ _____    ______ ____
ROOT
ATOM      1  C   LIG    1       12.529  75.461  33.627  0.00  0.00    +0.160 C 
ATOM      2  C   LIG    1       11.339  75.936  34.467  0.00  0.00    -0.030 C 
ATOM      3  C   LIG    1       11.504  77.426  34.776  0.00  0.00    +0.230 C 
ATOM      4  O   LIG    1       11.609  78.156  33.553  0.00  0.00    -0.380 OA
ATOM      5  C   LIG    1       12.730  77.789  32.747  0.00  0.00    +0.210 C 
ATOM      6  C   LIG    1       12.614  76.312  32.356  0.00  0.00    +0.020 C 
ENDROOT
BRANCH   1   7
ATOM      7  C   LIG    1       12.339  74.014  33.253  0.00  0.00    -0.080 A 
ATOM      8  C   LIG    1       12.352  73.040  34.232  0.00  0.00    +0.090 A 
ATOM      9  C   LIG    1       12.178  71.712  33.890  0.00  0.00    -0.030 A 
ATOM     10  C   LIG    1       11.992  71.359  32.565  0.00  0.00    +0.090 A 
ATOM     11  C   LIG    1       11.980  72.335  31.583  0.00  0.00    -0.030 A 
ATOM     12  F   LIG    1       11.822  70.061  32.229  0.00  0.00    -0.140 F 
ATOM     13  C   LIG    1       12.148  73.662  31.928  0.00  0.00    +0.040 A 
ENDBRANCH   1   7
BRANCH   1  14
ATOM     14  N   LIG    1       13.768  75.610  34.402  0.00  0.00    -0.670 NA
ATOM     15  H   LIG    1       13.778  74.981  35.192  0.00  0.00    +0.360 HD
BRANCH  14  16
ATOM     16  C   LIG    1       14.948  75.405  33.552  0.00  0.00    +0.310 C 
BRANCH  16  18
ATOM     17  C   LIG    1       17.187  74.141  33.854  0.00  0.00    -0.230 A 
ATOM     18  C   LIG    1       15.879  74.422  34.214  0.00  0.00    -0.020 A 
ATOM     19  O   LIG    1       15.609  73.644  35.264  0.00  0.00    +0.080 OA
ATOM     20  N   LIG    1       16.538  72.947  35.592  0.00  0.00    -0.380 NA
ATOM     21  C   LIG    1       17.581  73.117  34.836  0.00  0.00    +0.200 A 
BRANCH  17  23
ATOM     22  O   LIG    1       17.941  75.921  32.542  0.00  0.00    -0.680 OA
ATOM     23  C   LIG    1       17.983  74.718  32.761  0.00  0.00    +0.550 C 
ATOM     24  O   LIG    1       18.692  73.995  32.073  0.00  0.00    -0.680 OA
ENDBRANCH  17  23
ENDBRANCH  16  18
ENDBRANCH  14  16
ENDBRANCH   1  14
TORSDOF 5
ENDMDL
MODEL 
REMARK VINA RESULT:    -5.853      0.000      0.000
REMARK INTER + INTRA:          -8.883
REMARK INTER:                  -7.976
REMARK INTRA:                  -0.907
REMARK UNBOUND:                -0.977
REMARK  Name = ZINC001137754663
REMARK                            x       y       z     vdW  Elec       q    Type
REMARK                         _______ _______ _______ _____ _____    ______ ____
ROOT
ATOM      1  C   LIG    1       12.390  77.643  33.314  0.00  0.00    +0.560 C 
ATOM      2  N   LIG    1       12.753  76.347  33.401  0.00  0.00    -0.720 N 
ATOM      3  H   LIG    1       12.535  75.835  34.195  0.00  0.00    +0.400 HD
ATOM      4  O   LIG    1       12.663  78.285  32.318  0.00  0.00    -0.530 OA
ENDROOT
BRANCH   1   6
ATOM      5  C   LIG    1       11.431  77.599  35.543  0.00  0.00    +0.150 C 
ATOM      6  C   LIG    1       11.664  78.279  34.424  0.00  0.00    -0.180 C 
BRANCH   6   7
ATOM      7  C   LIG    1       11.183  79.701  34.293  0.00  0.00    +0.070 C 
BRANCH   7   8
ATOM      8  C   LIG    1       10.348  80.072  35.520  0.00  0.00    -0.020 C 
ATOM      9  C   LIG    1        8.891  80.282  35.101  0.00  0.00    +0.030 C 
ATOM     10  C   LIG    1       10.892  81.363  36.136  0.00  0.00    +0.020 C 
ENDBRANCH   7   8
ENDBRANCH   6   7
ENDBRANCH   1   6
BRANCH   2  11
ATOM     11  C   LIG    1       13.476  75.713  32.295  0.00  0.00    +0.290 C 
BRANCH  11  12
ATOM     12  C   LIG    1       12.910  74.339  32.047  0.00  0.00    -0.100 A 
ATOM     13  C   LIG    1       13.664  73.391  31.382  0.00  0.00    +0.040 A 
ATOM     14  C   LIG    1       13.145  72.130  31.155  0.00  0.00    -0.010 A 
ATOM     15  C   LIG    1       11.870  71.816  31.594  0.00  0.00    +0.100 A 
ATOM     16  C   LIG    1       11.116  72.766  32.261  0.00  0.00    -0.010 A 
ATOM     17  F   LIG    1       11.363  70.585  31.373  0.00  0.00    -0.140 F 
ATOM     18  C   LIG    1       11.639  74.025  32.492  0.00  0.00    +0.060 A 
ENDBRANCH  11  12
BRANCH  11  19
ATOM     19  C   LIG    1       14.958  75.596  32.657  0.00  0.00    +0.010 C 
ATOM     20  C   LIG    1       15.095  75.218  34.133  0.00  0.00    +0.020 C 
ENDBRANCH  11  19
ENDBRANCH   2  11
TORSDOF 6
ENDMDL
