MODEL 
REMARK VINA RESULT:    -7.774      0.000      0.000
REMARK INTER + INTRA:         -12.642
REMARK INTER:                 -11.588
REMARK INTRA:                  -1.054
REMARK UNBOUND:                -1.233
REMARK  Name = ZINC000453392616
REMARK                            x       y       z     vdW  Elec       q    Type
REMARK                         _______ _______ _______ _____ _____    ______ ____
ROOT
ATOM      1  C   LIG    1       11.866  72.491  31.884  0.00  0.00    +0.230 C 
ENDROOT
BRANCH   1   2
ATOM      2  C   LIG    1       10.883  72.774  32.990  0.00  0.00    -0.160 A 
ATOM      3  C   LIG    1        9.728  73.485  32.721  0.00  0.00    +0.040 A 
ATOM      4  C   LIG    1        8.825  73.746  33.735  0.00  0.00    +0.010 A 
ATOM      5  C   LIG    1        9.078  73.295  35.019  0.00  0.00    +0.140 A 
ATOM      6  C   LIG    1       10.235  72.583  35.287  0.00  0.00    +0.010 A 
ATOM      7  F   LIG    1        8.196  73.549  36.010  0.00  0.00    -0.120 F 
ATOM      8  C   LIG    1       11.133  72.319  34.271  0.00  0.00    +0.100 A 
ENDBRANCH   1   2
BRANCH   1   9
ATOM      9  N   LIG    1       11.229  71.648  30.865  0.00  0.00    -0.510 N 
ATOM     10  H   LIG    1       10.227  71.746  30.925  0.00  0.00    +0.430 HD
ATOM     11  H   LIG    1       11.539  71.933  29.949  0.00  0.00    +0.430 HD
BRANCH   9  12
ATOM     12  C   LIG    1       11.598  70.243  31.091  0.00  0.00    +0.410 C 
BRANCH  12  16
ATOM     13  C   LIG    1       10.041  67.681  29.034  0.00  0.00    +0.260 A 
ATOM     14  N   LIG    1        9.098  68.580  29.040  0.00  0.00    -0.480 NA
ATOM     15  C   LIG    1        9.508  69.631  29.773  0.00  0.00    +0.240 A 
ATOM     16  C   LIG    1       10.742  69.354  30.225  0.00  0.00    -0.160 A 
ATOM     17  O   LIG    1       11.069  68.131  29.764  0.00  0.00    -0.190 OA
BRANCH  13  18
ATOM     18  C   LIG    1        9.981  66.352  28.328  0.00  0.00    +0.180 C 
BRANCH  18  20
ATOM     19  C   LIG    1       11.458  64.878  26.954  0.00  0.00    +0.030 C 
ATOM     20  C   LIG    1       11.022  66.322  27.206  0.00  0.00    +0.020 C 
ENDBRANCH  18  20
ENDBRANCH  13  18
ENDBRANCH  12  16
ENDBRANCH   9  12
ENDBRANCH   1   9
BRANCH   1  21
ATOM     21  C   LIG    1       13.084  71.765  32.458  0.00  0.00    +0.090 C 
BRANCH  21  22
ATOM     22  C   LIG    1       14.344  72.590  32.190  0.00  0.00    -0.060 C 
ATOM     23  C   LIG    1       14.597  73.587  33.348  0.00  0.00    +0.030 C 
ATOM     24  C   LIG    1       15.053  74.859  32.588  0.00  0.00    +0.210 C 
ATOM     25  O   LIG    1       14.232  74.853  31.400  0.00  0.00    -0.370 OA
ATOM     26  C   LIG    1       14.149  73.487  30.952  0.00  0.00    +0.200 C 
ENDBRANCH  21  22
ENDBRANCH   1  21
TORSDOF 8
ENDMDL
MODEL 
REMARK VINA RESULT:    -7.776      0.000      0.000
REMARK INTER + INTRA:          -9.165
REMARK INTER:                  -9.124
REMARK INTRA:                  -0.041
REMARK UNBOUND:                -0.026
REMARK  Name = ZINC000874850581
REMARK                            x       y       z     vdW  Elec       q    Type
REMARK                         _______ _______ _______ _____ _____    ______ ____
ROOT
ATOM      1  C   LIG    1       14.766  60.238  25.579  0.00  0.00    +0.570 C 
ATOM      2  N   LIG    1       13.770  61.053  25.183  0.00  0.00    -0.710 N 
ATOM      3  H   LIG    1       13.658  61.261  24.243  0.00  0.00    +0.400 HD
ATOM      4  O   LIG    1       14.908  59.978  26.759  0.00  0.00    -0.520 OA
ENDROOT
BRANCH   2   5
ATOM      5  C   LIG    1       12.856  61.628  26.174  0.00  0.00    +0.160 C 
ATOM      6  C   LIG    1       13.549  62.562  27.181  0.00  0.00    +0.050 C 
ATOM      7  C   LIG    1       13.276  63.705  26.189  0.00  0.00    +0.250 C 
ATOM      8  F   LIG    1       14.296  63.886  25.249  0.00  0.00    -0.180 F 
ATOM      9  F   LIG    1       12.885  64.899  26.804  0.00  0.00    -0.190 F 
ATOM     10  C   LIG    1       11.954  60.580  26.828  0.00  0.00    +0.070 C 
ATOM     11  C   LIG    1       12.097  62.866  25.668  0.00  0.00    +0.060 C 
ENDBRANCH   2   5
BRANCH   1  16
ATOM     12  C   LIG    1       17.687  59.812  23.257  0.00  0.00    -0.080 A 
ATOM     13  C   LIG    1       17.416  58.571  22.707  0.00  0.00    +0.040 A 
ATOM     14  C   LIG    1       16.286  57.872  23.089  0.00  0.00    +0.010 A 
ATOM     15  C   LIG    1       15.421  58.407  24.021  0.00  0.00    +0.030 A 
ATOM     16  C   LIG    1       15.688  59.658  24.579  0.00  0.00    -0.140 A 
ATOM     17  C   LIG    1       16.834  60.356  24.194  0.00  0.00    +0.080 A 
BRANCH  12  19
ATOM     18  C   LIG    1       19.931  59.593  22.221  0.00  0.00    +0.030 C 
ATOM     19  C   LIG    1       18.922  60.567  22.836  0.00  0.00    +0.020 C 
ATOM     20  C   LIG    1       18.542  61.629  21.802  0.00  0.00    +0.030 C 
ENDBRANCH  12  19
ENDBRANCH   1  16
TORSDOF 3
ENDMDL
MODEL 
REMARK VINA RESULT:    -8.200      0.000      0.000
REMARK INTER + INTRA:         -10.532
REMARK INTER:                 -10.507
REMARK INTRA:                  -0.025
REMARK UNBOUND:                 0.064
REMARK  Name = ZINC000980288186
REMARK                            x       y       z     vdW  Elec       q    Type
REMARK                         _______ _______ _______ _____ _____    ______ ____
ROOT
ATOM      1  C   LIG    1       13.146  60.496  26.333  0.00  0.00    +0.280 C 
ENDROOT
BRANCH   1   2
ATOM      2  C   LIG    1       14.148  61.222  25.433  0.00  0.00    -0.030 C 
ATOM      3  C   LIG    1       13.421  62.156  24.431  0.00  0.00    +0.080 C 
ATOM      4  C   LIG    1       14.413  62.236  23.251  0.00  0.00    +0.220 C 
ATOM      5  N   LIG    1       15.279  61.049  23.327  0.00  0.00    -0.610 N 
ATOM      6  C   LIG    1       16.290  60.760  22.485  0.00  0.00    +0.520 C 
ATOM      7  O   LIG    1       16.551  61.511  21.570  0.00  0.00    -0.500 OA
ATOM      8  C   LIG    1       13.647  62.241  21.927  0.00  0.00    +0.040 C 
ATOM      9  C   LIG    1       14.857  60.230  24.478  0.00  0.00    +0.260 C 
BRANCH   6  10
ATOM     10  C   LIG    1       17.098  59.503  22.682  0.00  0.00    +0.110 C 
ATOM     11  F   LIG    1       17.226  59.241  24.050  0.00  0.00    -0.200 F 
ATOM     12  C   LIG    1       18.486  59.687  22.066  0.00  0.00    +0.090 C 
ATOM     13  C   LIG    1       16.390  58.329  22.002  0.00  0.00    +0.080 C 
ENDBRANCH   6  10
ENDBRANCH   1   2
BRANCH   1  14
ATOM     14  N   LIG    1       11.966  61.346  26.536  0.00  0.00    -0.510 N 
ATOM     15  H   LIG    1       11.861  61.970  25.750  0.00  0.00    +0.430 HD
ATOM     16  H   LIG    1       11.143  60.766  26.617  0.00  0.00    +0.430 HD
BRANCH  14  17
ATOM     17  C   LIG    1       12.133  62.131  27.766  0.00  0.00    +0.320 C 
BRANCH  17  25
ATOM     18  C   LIG    1        9.304  62.408  28.284  0.00  0.00    +0.100 C 
ATOM     19  C   LIG    1       10.110  63.604  27.846  0.00  0.00    -0.050 A 
ATOM     20  C   LIG    1        9.497  64.834  27.696  0.00  0.00    +0.020 A 
ATOM     21  C   LIG    1       10.237  65.930  27.294  0.00  0.00    +0.070 A 
ATOM     22  C   LIG    1       11.589  65.797  27.043  0.00  0.00    +0.020 A 
ATOM     23  C   LIG    1       12.203  64.568  27.194  0.00  0.00    -0.050 A 
ATOM     24  C   LIG    1       13.678  64.422  26.921  0.00  0.00    +0.100 C 
ATOM     25  C   LIG    1       11.464  63.473  27.600  0.00  0.00    -0.170 A 
ENDBRANCH  17  25
ENDBRANCH  14  17
ENDBRANCH   1  14
TORSDOF 5
ENDMDL
MODEL 
REMARK VINA RESULT:    -6.341      0.000      0.000
REMARK INTER + INTRA:          -8.542
REMARK INTER:                  -8.081
REMARK INTRA:                  -0.461
REMARK UNBOUND:                -0.347
REMARK  Name = ZINC000269591734
REMARK                            x       y       z     vdW  Elec       q    Type
REMARK                         _______ _______ _______ _____ _____    ______ ____
ROOT
ATOM      1  C   LIG    1       14.201  61.214  23.291  0.00  0.00    -0.050 C 
ATOM      2  C   LIG    1       13.632  62.591  22.941  0.00  0.00    +0.080 C 
ATOM      3  C   LIG    1       14.439  62.401  24.227  0.00  0.00    +0.090 C 
ENDROOT
BRANCH   3   4
ATOM      4  C   LIG    1       13.685  62.421  25.531  0.00  0.00    -0.160 A 
ATOM      5  C   LIG    1       13.644  63.450  26.380  0.00  0.00    -0.090 A 
ATOM      6  C   LIG    1       12.884  63.238  27.517  0.00  0.00    +0.010 A 
ATOM      7  C   LIG    1       12.307  62.037  27.591  0.00  0.00    -0.040 A 
ATOM      8  C   LIG    1       14.370  64.745  26.120  0.00  0.00    +0.110 C 
ATOM      9  S   LIG    1       12.717  61.096  26.164  0.00  0.00    +0.100 S 
ENDBRANCH   3   4
BRANCH   1  12
ATOM     10  N   LIG    1       15.503  59.404  22.221  0.00  0.00    -0.730 N 
ATOM     11  H   LIG    1       14.842  58.775  22.554  0.00  0.00    +0.400 HD
ATOM     12  C   LIG    1       15.372  60.719  22.482  0.00  0.00    +0.550 C 
ATOM     13  O   LIG    1       16.198  61.505  22.067  0.00  0.00    -0.530 OA
BRANCH  10  14
ATOM     14  C   LIG    1       16.642  58.921  21.435  0.00  0.00    +0.260 C 
BRANCH  14  15
ATOM     15  C   LIG    1       17.727  58.399  22.377  0.00  0.00    +0.160 C 
BRANCH  15  17
ATOM     16  C   LIG    1       19.796  60.049  22.340  0.00  0.00    +0.030 C 
ATOM     17  C   LIG    1       18.878  59.317  22.356  0.00  0.00    -0.200 C 
ENDBRANCH  15  17
ENDBRANCH  14  15
ENDBRANCH  10  14
ENDBRANCH   1  12
TORSDOF 5
ENDMDL
MODEL 
REMARK VINA RESULT:    -7.635      0.000      0.000
REMARK INTER + INTRA:         -10.240
REMARK INTER:                  -9.583
REMARK INTRA:                  -0.658
REMARK UNBOUND:                -0.820
REMARK  Name = ZINC000497710277
REMARK                            x       y       z     vdW  Elec       q    Type
REMARK                         _______ _______ _______ _____ _____    ______ ____
ROOT
ATOM      1  N   LIG    1       14.215  61.815  26.445  0.00  0.00    -0.500 N 
ATOM      2  H   LIG    1       14.110  62.225  27.361  0.00  0.00    +0.440 HD
ATOM      3  H   LIG    1       14.995  62.244  25.971  0.00  0.00    +0.430 HD
ENDROOT
BRANCH   1   4
ATOM      4  C   LIG    1       12.988  62.035  25.668  0.00  0.00    +0.220 C 
ATOM      5  C   LIG    1       13.349  62.276  24.201  0.00  0.00    +0.100 C 
BRANCH   4  10
ATOM      6  C   LIG    1       10.196  66.649  27.745  0.00  0.00    +0.110 C 
ATOM      7  C   LIG    1       10.923  65.446  27.203  0.00  0.00    -0.050 A 
ATOM      8  C   LIG    1       12.269  65.532  26.897  0.00  0.00    +0.030 A 
ATOM      9  C   LIG    1       12.937  64.428  26.400  0.00  0.00    +0.000 A 
ATOM     10  C   LIG    1       12.260  63.238  26.210  0.00  0.00    -0.140 A 
ATOM     11  C   LIG    1       10.915  63.152  26.517  0.00  0.00    -0.050 A 
ATOM     12  C   LIG    1       10.176  61.855  26.310  0.00  0.00    +0.100 C 
ATOM     13  C   LIG    1       10.247  64.255  27.018  0.00  0.00    +0.030 A 
ENDBRANCH   4  10
ENDBRANCH   1   4
BRANCH   1  14
ATOM     14  C   LIG    1       14.455  60.372  26.579  0.00  0.00    +0.280 C 
ATOM     15  C   LIG    1       13.121  59.624  26.517  0.00  0.00    +0.120 C 
BRANCH  14  16
ATOM     16  C   LIG    1       15.346  59.904  25.457  0.00  0.00    -0.050 A 
ATOM     17  N   LIG    1       16.395  60.518  25.047  0.00  0.00    -0.440 NA
ATOM     18  C   LIG    1       17.082  59.976  24.040  0.00  0.00    +0.050 A 
ATOM     19  C   LIG    1       16.550  58.830  23.596  0.00  0.00    -0.210 A 
ATOM     20  C   LIG    1       17.368  58.260  22.453  0.00  0.00    +0.140 C 
ATOM     21  C   LIG    1       18.236  59.439  21.964  0.00  0.00    +0.060 C 
ATOM     22  C   LIG    1       18.337  60.304  23.235  0.00  0.00    +0.140 C 
ATOM     23  S   LIG    1       15.109  58.475  24.554  0.00  0.00    +0.230 S 
ENDBRANCH  14  16
ENDBRANCH   1  14
TORSDOF 4
ENDMDL
MODEL 
REMARK VINA RESULT:    -7.667      0.000      0.000
REMARK INTER + INTRA:         -11.779
REMARK INTER:                 -11.027
REMARK INTRA:                  -0.753
REMARK UNBOUND:                -0.975
REMARK  Name = ZINC001733766910
REMARK                            x       y       z     vdW  Elec       q    Type
REMARK                         _______ _______ _______ _____ _____    ______ ____
ROOT
ATOM      1  N   LIG    1       13.902  62.519  24.705  0.00  0.00    -0.730 N 
ATOM      2  H   LIG    1       14.782  62.452  25.110  0.00  0.00    +0.410 HD
ATOM      3  C   LIG    1       13.750  62.306  23.384  0.00  0.00    +0.520 C 
ATOM      4  O   LIG    1       12.651  62.390  22.879  0.00  0.00    -0.530 OA
ENDROOT
BRANCH   1   9
ATOM      5  N   LIG    1       10.761  63.998  27.200  0.00  0.00    -0.380 N 
ATOM      6  C   LIG    1       10.417  62.607  27.542  0.00  0.00    +0.250 C 
ATOM      7  C   LIG    1       10.803  61.639  26.519  0.00  0.00    +0.060 C 
ATOM      8  C   LIG    1       12.336  61.626  26.313  0.00  0.00    +0.030 C 
ATOM      9  C   LIG    1       12.741  62.851  25.534  0.00  0.00    +0.220 C 
ATOM     10  C   LIG    1       13.101  64.052  26.429  0.00  0.00    +0.050 C 
ATOM     11  C   LIG    1       12.129  64.226  27.608  0.00  0.00    +0.250 C 
ATOM     12  H   LIG    1       10.674  64.138  26.206  0.00  0.00    +0.420 HD
BRANCH   5  13
ATOM     13  C   LIG    1        9.869  64.921  27.913  0.00  0.00    +0.260 C 
BRANCH  13  14
ATOM     14  C   LIG    1       10.204  66.361  27.520  0.00  0.00    +0.060 C 
BRANCH  14  16
ATOM     15  C   LIG    1        9.504  68.342  28.763  0.00  0.00    +0.060 C 
ATOM     16  C   LIG    1       10.199  67.232  28.750  0.00  0.00    -0.070 C 
ENDBRANCH  14  16
ENDBRANCH  13  14
ENDBRANCH   5  13
ENDBRANCH   1   9
BRANCH   3  17
ATOM     17  C   LIG    1       14.946  61.965  22.533  0.00  0.00    +0.060 C 
BRANCH  17  18
ATOM     18  C   LIG    1       15.284  60.482  22.699  0.00  0.00    +0.110 C 
BRANCH  18  19
ATOM     19  C   LIG    1       16.770  60.285  22.538  0.00  0.00    -0.130 A 
ATOM     20  C   LIG    1       17.585  61.368  22.270  0.00  0.00    +0.040 A 
ATOM     21  C   LIG    1       18.948  61.188  22.122  0.00  0.00    +0.000 A 
ATOM     22  C   LIG    1       19.496  59.924  22.239  0.00  0.00    +0.050 A 
ATOM     23  C   LIG    1       18.682  58.840  22.506  0.00  0.00    -0.010 A 
ATOM     24  C   LIG    1       17.318  59.020  22.661  0.00  0.00    +0.100 A 
ATOM     25  F   LIG    1       16.522  57.961  22.922  0.00  0.00    -0.140 F 
ENDBRANCH  18  19
ENDBRANCH  17  18
ENDBRANCH   3  17
TORSDOF 7
ENDMDL
MODEL 
REMARK VINA RESULT:    -7.914      0.000      0.000
REMARK INTER + INTRA:         -12.721
REMARK INTER:                 -11.582
REMARK INTRA:                  -1.139
REMARK UNBOUND:                -1.106
REMARK  Name = ZINC000552424980
REMARK                            x       y       z     vdW  Elec       q    Type
REMARK                         _______ _______ _______ _____ _____    ______ ____
ROOT
ATOM      1  C   LIG    1       14.045  61.365  24.665  0.00  0.00    +0.000 C 
ENDROOT
BRANCH   1   2
ATOM      2  C   LIG    1       15.011  60.226  24.463  0.00  0.00    +0.530 C 
ATOM      3  N   LIG    1       15.352  59.846  23.217  0.00  0.00    -0.730 N 
ATOM      4  H   LIG    1       14.932  60.264  22.449  0.00  0.00    +0.390 HD
ATOM      5  O   LIG    1       15.479  59.652  25.422  0.00  0.00    -0.520 OA
BRANCH   3   6
ATOM      6  C   LIG    1       16.359  58.800  23.020  0.00  0.00    +0.350 C 
BRANCH   6   7
ATOM      7  C   LIG    1       17.686  59.435  22.689  0.00  0.00    +0.200 A 
ATOM      8  N   LIG    1       17.895  60.711  22.509  0.00  0.00    -0.470 NA
ATOM      9  C   LIG    1       19.192  60.911  22.231  0.00  0.00    +0.150 A 
ATOM     10  C   LIG    1       19.810  59.715  22.241  0.00  0.00    +0.130 A 
ATOM     11  N   LIG    1       18.856  58.778  22.536  0.00  0.00    -0.570 N 
ATOM     12  H   LIG    1       18.993  57.821  22.616  0.00  0.00    +0.420 HD
ENDBRANCH   6   7
BRANCH   6  13
ATOM     13  C   LIG    1       15.930  57.888  21.870  0.00  0.00    +0.030 C 
ATOM     14  C   LIG    1       14.777  56.993  22.331  0.00  0.00    +0.030 C 
ENDBRANCH   6  13
ENDBRANCH   3   6
ENDBRANCH   1   2
BRANCH   1  16
ATOM     15  C   LIG    1       13.189  62.386  22.551  0.00  0.00    +0.020 C 
ATOM     16  C   LIG    1       14.296  62.441  23.605  0.00  0.00    +0.020 C 
ENDBRANCH   1  16
BRANCH   1  17
ATOM     17  C   LIG    1       14.247  61.966  26.058  0.00  0.00    +0.110 C 
BRANCH  17  18
ATOM     18  C   LIG    1       13.147  62.954  26.344  0.00  0.00    -0.050 A 
ATOM     19  C   LIG    1       13.457  64.273  26.617  0.00  0.00    +0.020 A 
ATOM     20  C   LIG    1       12.448  65.180  26.880  0.00  0.00    +0.070 A 
ATOM     21  C   LIG    1       11.128  64.769  26.869  0.00  0.00    -0.190 A 
ATOM     22  C   LIG    1       10.818  63.449  26.595  0.00  0.00    +0.070 A 
ATOM     23  C   LIG    1       11.828  62.543  26.328  0.00  0.00    +0.020 A 
BRANCH  21  24
ATOM     24  C   LIG    1       10.027  65.757  27.156  0.00  0.00    +0.510 C 
ATOM     25  F   LIG    1        9.562  65.572  28.462  0.00  0.00    -0.180 F 
ATOM     26  F   LIG    1        8.975  65.558  26.255  0.00  0.00    -0.180 F 
ATOM     27  F   LIG    1       10.521  67.059  27.017  0.00  0.00    -0.180 F 
ENDBRANCH  21  24
ENDBRANCH  17  18
ENDBRANCH   1  17
TORSDOF 8
ENDMDL
MODEL 
REMARK VINA RESULT:    -6.702      0.000      0.000
REMARK INTER + INTRA:         -10.237
REMARK INTER:                  -9.157
REMARK INTRA:                  -1.080
REMARK UNBOUND:                -1.185
REMARK  Name = ZINC001203906629
REMARK                            x       y       z     vdW  Elec       q    Type
REMARK                         _______ _______ _______ _____ _____    ______ ____
ROOT
ATOM      1  N   LIG    1       15.112  61.112  24.675  0.00  0.00    -0.380 N 
ATOM      2  H   LIG    1       15.515  61.852  25.229  0.00  0.00    +0.420 HD
ENDROOT
BRANCH   1   3
ATOM      3  C   LIG    1       16.038  60.749  23.594  0.00  0.00    +0.160 C 
ATOM      4  C   LIG    1       17.408  60.410  24.187  0.00  0.00    +0.040 C 
ATOM      5  C   LIG    1       18.372  60.033  23.061  0.00  0.00    +0.030 C 
ATOM      6  C   LIG    1       17.827  58.817  22.309  0.00  0.00    +0.020 C 
ATOM      7  C   LIG    1       16.458  59.155  21.716  0.00  0.00    +0.030 C 
ATOM      8  C   LIG    1       15.494  59.532  22.842  0.00  0.00    +0.040 C 
ENDBRANCH   1   3
BRANCH   1   9
ATOM      9  C   LIG    1       14.868  59.939  25.525  0.00  0.00    +0.290 C 
BRANCH   9  11
ATOM     10  C   LIG    1       14.210  60.432  27.825  0.00  0.00    +0.130 C 
ATOM     11  C   LIG    1       15.182  60.286  26.959  0.00  0.00    -0.110 C 
ENDBRANCH   9  11
ENDBRANCH   1   9
BRANCH   1  12
ATOM     12  C   LIG    1       13.841  61.569  24.096  0.00  0.00    +0.310 C 
BRANCH  12  13
ATOM     13  C   LIG    1       13.206  62.579  25.016  0.00  0.00    -0.130 A 
ATOM     14  C   LIG    1       11.857  62.488  25.314  0.00  0.00    +0.040 A 
ATOM     15  C   LIG    1       11.268  63.409  26.155  0.00  0.00    +0.080 A 
ATOM     16  C   LIG    1       12.037  64.435  26.708  0.00  0.00    +0.020 A 
ATOM     17  C   LIG    1       13.397  64.522  26.405  0.00  0.00    +0.080 A 
ATOM     18  C   LIG    1       13.974  63.590  25.565  0.00  0.00    +0.050 A 
BRANCH  16  19
ATOM     19  C   LIG    1       11.433  65.395  27.583  0.00  0.00    +0.230 C 
ATOM     20  N   LIG    1       10.953  66.156  28.277  0.00  0.00    -0.370 NA
ENDBRANCH  16  19
ENDBRANCH  12  13
ENDBRANCH   1  12
TORSDOF 6
ENDMDL
MODEL 
REMARK VINA RESULT:    -7.440      0.000      0.000
REMARK INTER + INTRA:         -10.128
REMARK INTER:                  -9.720
REMARK INTRA:                  -0.408
REMARK UNBOUND:                -0.514
REMARK  Name = ZINC001242489298
REMARK                            x       y       z     vdW  Elec       q    Type
REMARK                         _______ _______ _______ _____ _____    ______ ____
ROOT
ATOM      1  C   LIG    1       13.997  62.028  25.673  0.00  0.00    +0.050 A 
ATOM      2  C   LIG    1       14.141  61.837  24.288  0.00  0.00    -0.100 A 
ATOM      3  C   LIG    1       13.680  62.570  23.108  0.00  0.00    -0.060 A 
ATOM      4  C   LIG    1       14.130  61.903  22.032  0.00  0.00    +0.220 A 
ATOM      5  N   LIG    1       14.842  60.804  22.430  0.00  0.00    -0.600 N 
ATOM      6  H   LIG    1       15.264  60.167  21.832  0.00  0.00    +0.410 HD
ATOM      7  C   LIG    1       14.867  60.735  23.806  0.00  0.00    +0.100 A 
ATOM      8  C   LIG    1       15.437  59.841  24.706  0.00  0.00    -0.020 A 
ATOM      9  C   LIG    1       15.290  60.037  26.064  0.00  0.00    -0.060 A 
ATOM     10  C   LIG    1       15.913  59.062  27.029  0.00  0.00    +0.090 C 
ATOM     11  C   LIG    1       14.582  61.124  26.550  0.00  0.00    -0.020 A 
ENDROOT
BRANCH   1  14
ATOM     12  N   LIG    1       11.614  64.435  26.979  0.00  0.00    -0.370 N 
ATOM     13  C   LIG    1       11.921  63.188  26.568  0.00  0.00    +0.250 A 
ATOM     14  C   LIG    1       13.234  63.188  26.194  0.00  0.00    -0.200 A 
ATOM     15  C   LIG    1       13.731  64.492  26.390  0.00  0.00    +0.250 A 
ATOM     16  N   LIG    1       12.759  65.231  26.855  0.00  0.00    -0.290 NA
BRANCH  12  17
ATOM     17  C   LIG    1       10.307  64.881  27.468  0.00  0.00    +0.330 C 
BRANCH  17  18
ATOM     18  C   LIG    1       10.160  66.385  27.233  0.00  0.00    +0.040 C 
BRANCH  18  19
ATOM     19  C   LIG    1       10.042  67.103  28.579  0.00  0.00    +0.160 C 
BRANCH  19  21
ATOM     20  C   LIG    1        9.081  69.102  29.489  0.00  0.00    +0.200 C 
ATOM     21  O   LIG    1        9.690  68.471  28.360  0.00  0.00    -0.390 OA
ENDBRANCH  19  21
ENDBRANCH  18  19
ENDBRANCH  17  18
ENDBRANCH  12  17
ENDBRANCH   1  14
TORSDOF 5
ENDMDL
MODEL 
REMARK VINA RESULT:    -7.980      0.000      0.000
REMARK INTER + INTRA:         -11.952
REMARK INTER:                 -11.468
REMARK INTRA:                  -0.484
REMARK UNBOUND:                -1.172
REMARK  Name = ZINC000668322116
REMARK                            x       y       z     vdW  Elec       q    Type
REMARK                         _______ _______ _______ _____ _____    ______ ____
ROOT
ATOM      1  C   LIG    1       13.534  61.874  24.779  0.00  0.00    +0.030 C 
ATOM      2  C   LIG    1       12.951  61.066  25.968  0.00  0.00    +0.040 C 
ATOM      3  C   LIG    1       12.171  62.133  26.764  0.00  0.00    +0.240 C 
ATOM      4  N   LIG    1       12.735  63.442  26.405  0.00  0.00    -0.630 N 
ATOM      5  C   LIG    1       12.313  64.635  26.873  0.00  0.00    +0.530 C 
ATOM      6  O   LIG    1       12.855  65.655  26.507  0.00  0.00    -0.540 OA
ATOM      7  C   LIG    1       13.839  63.237  25.448  0.00  0.00    +0.270 C 
ENDROOT
BRANCH   1  12
ATOM      8  C   LIG    1       18.369  59.422  22.779  0.00  0.00    +0.100 C 
ATOM      9  C   LIG    1       17.108  60.061  23.300  0.00  0.00    -0.090 A 
ATOM     10  C   LIG    1       16.804  59.992  24.647  0.00  0.00    +0.000 A 
ATOM     11  C   LIG    1       15.648  60.579  25.125  0.00  0.00    +0.010 A 
ATOM     12  C   LIG    1       14.796  61.235  24.257  0.00  0.00    -0.080 A 
ATOM     13  C   LIG    1       15.100  61.305  22.911  0.00  0.00    -0.070 A 
ATOM     14  C   LIG    1       14.171  62.021  21.964  0.00  0.00    +0.090 C 
ATOM     15  C   LIG    1       16.258  60.722  22.432  0.00  0.00    +0.000 A 
ENDBRANCH   1  12
BRANCH   5  16
ATOM     16  C   LIG    1       11.168  64.697  27.850  0.00  0.00    +0.050 C 
BRANCH  16  17
ATOM     17  C   LIG    1        9.940  65.295  27.160  0.00  0.00    +0.010 C 
BRANCH  17  18
ATOM     18  C   LIG    1        9.954  66.816  27.320  0.00  0.00    +0.030 C 
BRANCH  18  19
ATOM     19  C   LIG    1       10.109  67.173  28.799  0.00  0.00    -0.060 C 
BRANCH  19  20
ATOM     20  C   LIG    1        9.345  68.438  29.094  0.00  0.00    +0.490 C 
ATOM     21  O   LIG    1        9.663  69.483  28.550  0.00  0.00    -0.710 OA
ATOM     22  O   LIG    1        8.409  68.417  29.874  0.00  0.00    -0.700 OA
ENDBRANCH  19  20
ENDBRANCH  18  19
ENDBRANCH  17  18
ENDBRANCH  16  17
ENDBRANCH   5  16
TORSDOF 6
ENDMDL
MODEL 
REMARK VINA RESULT:    -6.963      0.000      0.000
REMARK INTER + INTRA:          -9.760
REMARK INTER:                  -9.012
REMARK INTRA:                  -0.748
REMARK UNBOUND:                -0.761
REMARK  Name = ZINC000521632879
REMARK                            x       y       z     vdW  Elec       q    Type
REMARK                         _______ _______ _______ _____ _____    ______ ____
ROOT
ATOM      1  N   LIG    1       15.814  59.815  23.142  0.00  0.00    -0.730 N 
ATOM      2  H   LIG    1       15.293  60.003  22.346  0.00  0.00    +0.400 HD
ATOM      3  C   LIG    1       15.430  60.316  24.332  0.00  0.00    +0.550 C 
ATOM      4  O   LIG    1       16.081  60.082  25.328  0.00  0.00    -0.540 OA
ENDROOT
BRANCH   3   5
ATOM      5  C   LIG    1       14.190  61.169  24.426  0.00  0.00    -0.070 C 
ATOM      6  C   LIG    1       13.992  62.249  23.361  0.00  0.00    +0.060 C 
ATOM      7  C   LIG    1       14.372  62.644  24.790  0.00  0.00    +0.020 C 
BRANCH   7   8
ATOM      8  C   LIG    1       13.293  63.298  25.653  0.00  0.00    +0.010 C 
ATOM      9  C   LIG    1       13.029  62.558  26.976  0.00  0.00    +0.020 C 
ATOM     10  C   LIG    1       12.913  63.942  27.636  0.00  0.00    +0.000 C 
ATOM     11  C   LIG    1       13.810  64.471  26.504  0.00  0.00    +0.020 C 
ENDBRANCH   7   8
ENDBRANCH   3   5
BRANCH   1  13
ATOM     12  C   LIG    1       16.621  57.530  22.812  0.00  0.00    +0.040 C 
ATOM     13  C   LIG    1       17.020  58.988  23.050  0.00  0.00    +0.240 C 
BRANCH  13  14
ATOM     14  C   LIG    1       17.886  59.475  21.887  0.00  0.00    +0.070 C 
BRANCH  14  15
ATOM     15  C   LIG    1       18.965  60.423  22.418  0.00  0.00    +0.450 C 
ATOM     16  F   LIG    1       18.709  60.714  23.762  0.00  0.00    -0.180 F 
ATOM     17  F   LIG    1       18.953  61.607  21.673  0.00  0.00    -0.180 F 
ATOM     18  F   LIG    1       20.218  59.812  22.304  0.00  0.00    -0.180 F 
ENDBRANCH  14  15
ENDBRANCH  13  14
ENDBRANCH   1  13
TORSDOF 5
ENDMDL
MODEL 
REMARK VINA RESULT:    -7.447      0.000      0.000
REMARK INTER + INTRA:         -10.323
REMARK INTER:                 -10.271
REMARK INTRA:                  -0.051
REMARK UNBOUND:                 0.171
REMARK  Name = ZINC001437730647
REMARK                            x       y       z     vdW  Elec       q    Type
REMARK                         _______ _______ _______ _____ _____    ______ ____
ROOT
ATOM      1  N   LIG    1       16.576  60.010  24.043  0.00  0.00    -0.710 N 
ATOM      2  H   LIG    1       17.186  59.682  24.722  0.00  0.00    +0.400 HD
ATOM      3  C   LIG    1       15.457  60.669  24.405  0.00  0.00    +0.520 C 
ATOM      4  O   LIG    1       14.744  61.162  23.558  0.00  0.00    -0.500 OA
ENDROOT
BRANCH   1   5
ATOM      5  C   LIG    1       16.871  59.791  22.625  0.00  0.00    +0.180 C 
ATOM      6  C   LIG    1       18.247  59.101  22.455  0.00  0.00    +0.040 C 
ATOM      7  C   LIG    1       19.241  60.280  22.589  0.00  0.00    +0.000 C 
ATOM      8  C   LIG    1       18.539  61.451  21.870  0.00  0.00    -0.010 C 
ATOM      9  C   LIG    1       17.032  61.140  21.892  0.00  0.00    +0.020 C 
BRANCH   5  10
ATOM     10  C   LIG    1       15.769  58.956  21.973  0.00  0.00    +0.070 C 
BRANCH  10  12
ATOM     11  C   LIG    1       15.012  56.994  23.213  0.00  0.00    +0.000 C 
ATOM     12  C   LIG    1       15.902  57.520  22.409  0.00  0.00    -0.040 C 
ENDBRANCH  10  12
ENDBRANCH   5  10
ENDBRANCH   1   5
BRANCH   3  13
ATOM     13  C   LIG    1       15.094  60.793  25.862  0.00  0.00    +0.000 C 
ATOM     14  C   LIG    1       15.812  59.704  26.661  0.00  0.00    +0.100 C 
BRANCH  13  15
ATOM     15  S   LIG    1       13.300  60.603  26.057  0.00  0.00    -0.050 S 
BRANCH  15  16
ATOM     16  C   LIG    1       12.754  62.256  26.331  0.00  0.00    -0.120 A 
ATOM     17  C   LIG    1       11.396  62.544  26.358  0.00  0.00    +0.030 A 
ATOM     18  C   LIG    1       10.969  63.840  26.572  0.00  0.00    +0.000 A 
ATOM     19  C   LIG    1       11.898  64.854  26.760  0.00  0.00    +0.120 A 
ATOM     20  C   LIG    1       13.255  64.568  26.733  0.00  0.00    -0.060 A 
ATOM     21  C   LIG    1       13.683  63.271  26.524  0.00  0.00    +0.070 A 
BRANCH  19  22
ATOM     22  O   LIG    1       11.477  66.129  26.971  0.00  0.00    -0.320 OA
ATOM     23  C   LIG    1       10.597  66.348  28.075  0.00  0.00    +0.250 C 
ENDBRANCH  19  22
ENDBRANCH  15  16
ENDBRANCH  13  15
ENDBRANCH   3  13
TORSDOF 7
ENDMDL
MODEL 
REMARK VINA RESULT:    -6.542      0.000      0.000
REMARK INTER + INTRA:          -9.618
REMARK INTER:                  -9.133
REMARK INTRA:                  -0.485
REMARK UNBOUND:                -1.163
REMARK  Name = ZINC000456294060
REMARK                            x       y       z     vdW  Elec       q    Type
REMARK                         _______ _______ _______ _____ _____    ______ ____
ROOT
ATOM      1  N   LIG    1       14.797  60.653  24.118  0.00  0.00    -0.730 N 
ATOM      2  H   LIG    1       15.142  60.063  24.806  0.00  0.00    +0.400 HD
ATOM      3  C   LIG    1       14.337  61.876  24.450  0.00  0.00    +0.520 C 
ATOM      4  O   LIG    1       13.905  62.615  23.590  0.00  0.00    -0.530 OA
ENDROOT
BRANCH   3   5
ATOM      5  C   LIG    1       14.358  62.325  25.888  0.00  0.00    +0.030 C 
ATOM      6  C   LIG    1       14.456  61.102  26.802  0.00  0.00    +0.050 C 
BRANCH   5   7
ATOM      7  C   LIG    1       13.092  63.082  26.196  0.00  0.00    -0.070 A 
ATOM      8  C   LIG    1       11.865  62.459  26.066  0.00  0.00    +0.030 A 
ATOM      9  C   LIG    1       10.703  63.154  26.348  0.00  0.00    +0.000 A 
ATOM     10  C   LIG    1       10.770  64.471  26.762  0.00  0.00    +0.000 A 
ATOM     11  C   LIG    1       11.997  65.094  26.894  0.00  0.00    +0.000 A 
ATOM     12  C   LIG    1       13.158  64.398  26.615  0.00  0.00    +0.010 A 
ENDBRANCH   5   7
ENDBRANCH   3   5
BRANCH   1  13
ATOM     13  C   LIG    1       14.777  60.217  22.720  0.00  0.00    +0.290 C 
BRANCH  13  16
ATOM     14  C   LIG    1       17.349  59.787  22.925  0.00  0.00    -0.020 C 
ATOM     15  C   LIG    1       16.877  59.076  21.654  0.00  0.00    +0.030 C 
ATOM     16  C   LIG    1       16.179  60.356  22.121  0.00  0.00    -0.060 C 
BRANCH  14  18
ATOM     17  C   LIG    1       19.773  59.595  22.351  0.00  0.00    +0.020 C 
ATOM     18  C   LIG    1       18.681  60.537  22.861  0.00  0.00    +0.000 C 
ATOM     19  C   LIG    1       18.550  61.728  21.910  0.00  0.00    +0.030 C 
ENDBRANCH  14  18
ENDBRANCH  13  16
ENDBRANCH   1  13
TORSDOF 5
ENDMDL
MODEL 
REMARK VINA RESULT:    -9.059      0.000      0.000
REMARK INTER + INTRA:         -10.722
REMARK INTER:                 -10.448
REMARK INTRA:                  -0.274
REMARK UNBOUND:                -0.075
REMARK  Name = ZINC000676511657
REMARK                            x       y       z     vdW  Elec       q    Type
REMARK                         _______ _______ _______ _____ _____    ______ ____
ROOT
ATOM      1  C   LIG    1       13.678  62.069  22.554  0.00  0.00    +0.060 C 
ATOM      2  C   LIG    1       14.667  61.542  23.596  0.00  0.00    +0.160 C 
ENDROOT
BRANCH   2   3
ATOM      3  C   LIG    1       15.276  60.254  23.103  0.00  0.00    +0.510 C 
ATOM      4  N   LIG    1       16.290  60.286  22.216  0.00  0.00    -0.610 N 
ATOM      5  C   LIG    1       16.861  61.592  21.836  0.00  0.00    +0.260 C 
ATOM      6  C   LIG    1       18.393  61.520  21.754  0.00  0.00    +0.010 C 
ATOM      7  C   LIG    1       18.923  60.672  22.892  0.00  0.00    +0.210 C 
ATOM      8  O   LIG    1       19.021  59.325  22.449  0.00  0.00    -0.390 OA
ATOM      9  C   LIG    1       17.925  58.493  22.558  0.00  0.00    +0.220 C 
ATOM     10  C   LIG    1       16.782  59.033  21.674  0.00  0.00    +0.200 C 
ATOM     11  C   LIG    1       15.641  58.013  21.638  0.00  0.00    +0.050 C 
ATOM     12  O   LIG    1       14.855  59.190  23.506  0.00  0.00    -0.500 OA
ENDBRANCH   2   3
BRANCH   2  13
ATOM     13  O   LIG    1       13.980  61.303  24.826  0.00  0.00    -0.280 OA
BRANCH  13  14
ATOM     14  C   LIG    1       13.404  62.376  25.429  0.00  0.00    +0.130 A 
ATOM     15  C   LIG    1       14.168  63.491  25.744  0.00  0.00    -0.020 A 
ATOM     16  C   LIG    1       13.578  64.577  26.356  0.00  0.00    +0.060 A 
ATOM     17  C   LIG    1       12.226  64.561  26.658  0.00  0.00    -0.130 A 
ATOM     18  C   LIG    1       11.357  65.611  27.318  0.00  0.00    +0.070 C 
ATOM     19  C   LIG    1        9.906  65.204  26.980  0.00  0.00    +0.030 C 
ATOM     20  C   LIG    1       10.029  63.680  26.774  0.00  0.00    +0.080 C 
ATOM     21  C   LIG    1       11.463  63.452  26.345  0.00  0.00    -0.060 A 
ATOM     22  C   LIG    1       12.050  62.362  25.726  0.00  0.00    -0.080 A 
ENDBRANCH  13  14
ENDBRANCH   2  13
TORSDOF 3
ENDMDL
MODEL 
REMARK VINA RESULT:    -6.754      0.000      0.000
REMARK INTER + INTRA:         -10.968
REMARK INTER:                 -10.325
REMARK INTRA:                  -0.643
REMARK UNBOUND:                -1.055
REMARK  Name = ZINC000766796591
REMARK                            x       y       z     vdW  Elec       q    Type
REMARK                         _______ _______ _______ _____ _____    ______ ____
ROOT
ATOM      1  C   LIG    1       13.496  62.226  25.561  0.00  0.00    -0.120 C 
ATOM      2  C   LIG    1       13.762  61.087  24.888  0.00  0.00    +0.120 C 
ATOM      3  C   LIG    1       14.376  63.436  25.375  0.00  0.00    +0.110 C 
ENDROOT
BRANCH   2   4
ATOM      4  C   LIG    1       14.988  60.978  24.082  0.00  0.00    -0.050 A 
ATOM      5  C   LIG    1       15.009  61.453  22.765  0.00  0.00    -0.010 A 
ATOM      6  C   LIG    1       16.162  61.346  22.016  0.00  0.00    +0.050 A 
ATOM      7  C   LIG    1       17.296  60.772  22.562  0.00  0.00    +0.060 A 
ATOM      8  C   LIG    1       17.285  60.300  23.863  0.00  0.00    +0.050 A 
ATOM      9 CL   LIG    1       13.587  62.174  22.076  0.00  0.00    -0.040 Cl
ATOM     10  C   LIG    1       16.141  60.405  24.629  0.00  0.00    -0.010 A 
ATOM     11 CL   LIG    1       16.129  59.811  26.260  0.00  0.00    -0.040 Cl
ENDBRANCH   2   4
BRANCH   1  12
ATOM     12  C   LIG    1       12.353  62.287  26.471  0.00  0.00    +0.510 C 
ATOM     13  O   LIG    1       11.417  61.526  26.323  0.00  0.00    -0.500 OA
BRANCH  12  14
ATOM     14  O   LIG    1       12.338  63.188  27.475  0.00  0.00    -0.330 OA
BRANCH  14  15
ATOM     15  C   LIG    1       11.107  63.873  27.714  0.00  0.00    +0.230 C 
BRANCH  15  16
ATOM     16  C   LIG    1       11.239  65.310  27.281  0.00  0.00    +0.360 C 
ATOM     17  O   LIG    1       12.292  65.719  26.855  0.00  0.00    -0.430 OA
BRANCH  16  18
ATOM     18  C   LIG    1       10.055  66.238  27.379  0.00  0.00    +0.060 C 
BRANCH  18  19
ATOM     19  C   LIG    1       10.215  67.142  28.602  0.00  0.00    +0.190 C 
BRANCH  19  21
ATOM     20  C   LIG    1        9.075  69.065  29.468  0.00  0.00    +0.200 C 
ATOM     21  O   LIG    1        9.646  68.423  28.327  0.00  0.00    -0.390 OA
ENDBRANCH  19  21
ENDBRANCH  18  19
ENDBRANCH  16  18
ENDBRANCH  15  16
ENDBRANCH  14  15
ENDBRANCH  12  14
ENDBRANCH   1  12
TORSDOF 8
ENDMDL
MODEL 
REMARK VINA RESULT:    -6.422      0.000      0.000
REMARK INTER + INTRA:          -9.622
REMARK INTER:                  -9.278
REMARK INTRA:                  -0.344
REMARK UNBOUND:                -0.572
REMARK  Name = ZINC000226317887
REMARK                            x       y       z     vdW  Elec       q    Type
REMARK                         _______ _______ _______ _____ _____    ______ ____
ROOT
ATOM      1  N   LIG    1       14.455  60.754  24.983  0.00  0.00    -0.510 N 
ATOM      2  H   LIG    1       14.021  60.656  25.888  0.00  0.00    +0.430 HD
ATOM      3  H   LIG    1       13.929  60.229  24.300  0.00  0.00    +0.420 HD
ENDROOT
BRANCH   1   4
ATOM      4  C   LIG    1       14.478  62.171  24.602  0.00  0.00    +0.230 C 
ATOM      5  C   LIG    1       14.192  62.301  23.104  0.00  0.00    +0.100 C 
BRANCH   4   6
ATOM      6  C   LIG    1       13.426  62.918  25.380  0.00  0.00    -0.130 A 
ATOM      7  C   LIG    1       13.775  64.035  26.116  0.00  0.00    +0.010 A 
ATOM      8  C   LIG    1       12.810  64.721  26.830  0.00  0.00    +0.070 A 
ATOM      9  C   LIG    1       11.496  64.290  26.807  0.00  0.00    -0.070 A 
ATOM     10  C   LIG    1       11.147  63.172  26.071  0.00  0.00    +0.070 A 
ATOM     11 BR   LIG    1       10.176  65.229  27.783  0.00  0.00    -0.020 Br
ATOM     12  C   LIG    1       12.112  62.490  25.353  0.00  0.00    +0.060 A 
ENDBRANCH   4   6
ENDBRANCH   1   4
BRANCH   1  13
ATOM     13  C   LIG    1       15.831  60.239  25.041  0.00  0.00    +0.260 C 
BRANCH  13  14
ATOM     14  C   LIG    1       16.018  59.160  23.974  0.00  0.00    +0.190 C 
BRANCH  14  15
ATOM     15  N   LIG    1       16.747  59.723  22.830  0.00  0.00    -0.500 NA
BRANCH  15  16
ATOM     16  C   LIG    1       18.135  60.037  23.195  0.00  0.00    +0.130 C 
ATOM     17  C   LIG    1       19.236  59.594  22.230  0.00  0.00    +0.000 C 
ATOM     18  C   LIG    1       18.871  61.074  22.345  0.00  0.00    +0.040 C 
ENDBRANCH  15  16
BRANCH  15  20
ATOM     19  C   LIG    1       15.520  57.852  21.835  0.00  0.00    +0.050 C 
ATOM     20  C   LIG    1       16.698  58.815  21.676  0.00  0.00    +0.160 C 
ENDBRANCH  15  20
ENDBRANCH  14  15
ENDBRANCH  13  14
ENDBRANCH   1  13
TORSDOF 7
ENDMDL
MODEL 
REMARK VINA RESULT:    -7.966      0.000      0.000
REMARK INTER + INTRA:          -9.885
REMARK INTER:                  -9.319
REMARK INTRA:                  -0.565
REMARK UNBOUND:                -0.521
REMARK  Name = ZINC001239587557
REMARK                            x       y       z     vdW  Elec       q    Type
REMARK                         _______ _______ _______ _____ _____    ______ ____
ROOT
ATOM      1  C   LIG    1       14.671  61.191  25.549  0.00  0.00    +0.260 A 
ATOM      2  C   LIG    1       15.015  60.187  26.457  0.00  0.00    -0.070 A 
ATOM      3  N   LIG    1       14.649  59.862  27.743  0.00  0.00    -0.580 N 
ATOM      4  H   LIG    1       14.011  60.339  28.298  0.00  0.00    +0.430 HD
ATOM      5  C   LIG    1       15.344  58.754  28.090  0.00  0.00    +0.540 A 
ATOM      6  N   LIG    1       16.110  58.378  27.105  0.00  0.00    -0.490 NA
ATOM      7  C   LIG    1       15.958  59.218  26.064  0.00  0.00    +0.300 A 
ATOM      8  N   LIG    1       16.485  59.297  24.840  0.00  0.00    -0.470 NA
ATOM      9  C   LIG    1       16.130  60.261  24.019  0.00  0.00    +0.340 A 
ATOM     10  N   LIG    1       15.247  61.185  24.347  0.00  0.00    -0.490 NA
ENDROOT
BRANCH   1  14
ATOM     11  C   LIG    1       11.838  64.184  26.590  0.00  0.00    -0.060 A 
ATOM     12  C   LIG    1       11.407  62.912  26.262  0.00  0.00    +0.010 A 
ATOM     13  C   LIG    1       12.322  61.937  25.924  0.00  0.00    +0.060 A 
ATOM     14  C   LIG    1       13.684  62.235  25.912  0.00  0.00    -0.060 A 
ATOM     15  C   LIG    1       14.112  63.519  26.244  0.00  0.00    +0.020 A 
ATOM     16  C   LIG    1       13.188  64.488  26.576  0.00  0.00    +0.010 A 
BRANCH  11  18
ATOM     17  C   LIG    1        9.832  64.674  27.963  0.00  0.00    +0.030 C 
ATOM     18  C   LIG    1       10.834  65.246  26.959  0.00  0.00    +0.060 C 
ENDBRANCH  11  18
ENDBRANCH   1  14
BRANCH   9  19
ATOM     19  C   LIG    1       16.752  60.311  22.647  0.00  0.00    +0.010 C 
ATOM     20  C   LIG    1       18.270  60.453  22.780  0.00  0.00    +0.050 C 
ATOM     21  C   LIG    1       16.193  61.508  21.876  0.00  0.00    +0.050 C 
ATOM     22  C   LIG    1       16.425  59.020  21.893  0.00  0.00    +0.050 C 
ENDBRANCH   9  19
TORSDOF 3
ENDMDL
MODEL 
REMARK VINA RESULT:    -8.971      0.000      0.000
REMARK INTER + INTRA:         -11.815
REMARK INTER:                 -11.367
REMARK INTRA:                  -0.447
REMARK UNBOUND:                -0.221
REMARK  Name = ZINC000533138276
REMARK                            x       y       z     vdW  Elec       q    Type
REMARK                         _______ _______ _______ _____ _____    ______ ____
ROOT
ATOM      1  C   LIG    1       15.098  60.324  25.241  0.00  0.00    +0.520 C 
ATOM      2  N   LIG    1       15.563  60.500  23.988  0.00  0.00    -0.720 N 
ATOM      3  H   LIG    1       15.084  61.073  23.369  0.00  0.00    +0.400 HD
ATOM      4  O   LIG    1       15.696  59.608  26.015  0.00  0.00    -0.530 OA
ENDROOT
BRANCH   2   5
ATOM      5  C   LIG    1       16.791  59.825  23.562  0.00  0.00    +0.290 C 
ATOM      6  C   LIG    1       17.506  60.527  22.393  0.00  0.00    -0.040 C 
ATOM      7  C   LIG    1       18.910  61.046  22.769  0.00  0.00    +0.010 C 
ATOM      8  C   LIG    1       19.859  59.900  22.353  0.00  0.00    +0.200 C 
ATOM      9  O   LIG    1       19.036  58.715  22.370  0.00  0.00    -0.360 OA
ATOM     10  C   LIG    1       17.756  59.117  21.799  0.00  0.00    +0.160 C 
ATOM     11  C   LIG    1       16.547  58.652  22.612  0.00  0.00    -0.110 C 
ATOM     12  C   LIG    1       16.459  57.223  23.152  0.00  0.00    +0.040 C 
ATOM     13  C   LIG    1       14.931  57.363  23.031  0.00  0.00    +0.010 C 
ATOM     14  C   LIG    1       15.188  58.426  21.948  0.00  0.00    +0.050 C 
ENDBRANCH   2   5
BRANCH   1  15
ATOM     15  C   LIG    1       13.834  61.018  25.680  0.00  0.00    +0.050 C 
BRANCH  15  16
ATOM     16  C   LIG    1       13.762  62.404  25.037  0.00  0.00    +0.060 C 
ATOM     17  C   LIG    1       13.322  62.267  23.578  0.00  0.00    +0.040 C 
BRANCH  16  21
ATOM     18  C   LIG    1       10.945  64.815  27.155  0.00  0.00    -0.080 A 
ATOM     19  C   LIG    1       12.288  65.144  27.174  0.00  0.00    +0.000 A 
ATOM     20  C   LIG    1       13.200  64.363  26.488  0.00  0.00    +0.010 A 
ATOM     21  C   LIG    1       12.769  63.254  25.785  0.00  0.00    -0.080 A 
ATOM     22  C   LIG    1       11.426  62.925  25.767  0.00  0.00    +0.010 A 
ATOM     23  C   LIG    1       10.515  63.703  26.457  0.00  0.00    +0.000 A 
BRANCH  18  25
ATOM     24  C   LIG    1       10.003  67.099  27.370  0.00  0.00    +0.030 C 
ATOM     25  C   LIG    1        9.951  65.666  27.903  0.00  0.00    +0.050 C 
ENDBRANCH  18  25
ENDBRANCH  16  21
ENDBRANCH  15  16
ENDBRANCH   1  15
TORSDOF 5
ENDMDL
MODEL 
REMARK VINA RESULT:    -6.809      0.000      0.000
REMARK INTER + INTRA:          -8.055
REMARK INTER:                  -8.031
REMARK INTRA:                  -0.024
REMARK UNBOUND:                -0.052
REMARK  Name = ZINC000972299712
REMARK                            x       y       z     vdW  Elec       q    Type
REMARK                         _______ _______ _______ _____ _____    ______ ____
ROOT
ATOM      1  C   LIG    1       12.993  62.525  25.351  0.00  0.00    +0.160 C 
ATOM      2  C   LIG    1       13.619  61.430  26.254  0.00  0.00    +0.070 C 
ATOM      3  C   LIG    1       14.385  60.547  25.246  0.00  0.00    +0.280 C 
ATOM      4  N   LIG    1       14.642  61.368  24.054  0.00  0.00    -0.620 N 
ATOM      5  C   LIG    1       15.269  60.954  22.936  0.00  0.00    +0.560 C 
ATOM      6  O   LIG    1       15.427  61.721  22.009  0.00  0.00    -0.510 OA
ATOM      7  C   LIG    1       14.097  62.719  24.283  0.00  0.00    +0.300 C 
ENDROOT
BRANCH   5   8
ATOM      8  C   LIG    1       15.776  59.538  22.836  0.00  0.00    -0.020 C 
ATOM      9  C   LIG    1       16.699  59.297  21.628  0.00  0.00    +0.090 C 
ATOM     10  C   LIG    1       17.862  59.695  22.544  0.00  0.00    -0.170 C 
ATOM     11  C   LIG    1       19.357  59.485  22.328  0.00  0.00    +0.040 C 
ATOM     12  C   LIG    1       18.787  60.902  22.437  0.00  0.00    +0.050 C 
ATOM     13  C   LIG    1       16.997  59.256  23.730  0.00  0.00    +0.100 C 
ENDBRANCH   5   8
BRANCH   1  14
ATOM     14  N   LIG    1       12.767  63.764  26.107  0.00  0.00    -0.380 N 
ATOM     15  C   LIG    1       13.657  63.797  27.274  0.00  0.00    +0.320 C 
ATOM     16  H   LIG    1       12.958  64.558  25.515  0.00  0.00    +0.420 HD
BRANCH  14  18
ATOM     17  C   LIG    1       11.080  65.186  27.173  0.00  0.00    +0.080 C 
ATOM     18  C   LIG    1       11.368  63.815  26.557  0.00  0.00    +0.240 C 
ENDBRANCH  14  18
ENDBRANCH   1  14
TORSDOF 3
ENDMDL
MODEL 
REMARK VINA RESULT:    -7.465      0.000      0.000
REMARK INTER + INTRA:          -7.970
REMARK INTER:                  -8.655
REMARK INTRA:                   0.685
REMARK UNBOUND:                 0.805
REMARK  Name = ZINC000630416382
REMARK                            x       y       z     vdW  Elec       q    Type
REMARK                         _______ _______ _______ _____ _____    ______ ____
ROOT
ATOM      1  O   LIG    1       16.449  59.453  25.435  0.00  0.00    -0.590 OA
ATOM      2  C   LIG    1       15.820  60.090  24.612  0.00  0.00    +0.740 C 
ATOM      3  N   LIG    1       14.903  60.993  25.016  0.00  0.00    -0.670 N 
ATOM      4  C   LIG    1       13.969  61.919  24.359  0.00  0.00    +0.280 C 
ATOM      5  C   LIG    1       14.057  62.807  25.608  0.00  0.00    +0.030 C 
ATOM      6  C   LIG    1       14.393  61.479  26.306  0.00  0.00    +0.300 C 
ATOM      7  N   LIG    1       16.034  59.889  23.298  0.00  0.00    -0.740 N 
ATOM      8  H   LIG    1       15.532  60.397  22.641  0.00  0.00    +0.400 HD
ENDROOT
BRANCH   5   9
ATOM      9  C   LIG    1       12.741  63.408  26.032  0.00  0.00    -0.080 A 
ATOM     10  C   LIG    1       11.559  62.745  25.760  0.00  0.00    +0.000 A 
ATOM     11  C   LIG    1       10.353  63.298  26.149  0.00  0.00    +0.000 A 
ATOM     12  C   LIG    1       10.329  64.511  26.809  0.00  0.00    +0.000 A 
ATOM     13  C   LIG    1       11.511  65.173  27.082  0.00  0.00    +0.000 A 
ATOM     14  C   LIG    1       12.718  64.620  26.697  0.00  0.00    +0.010 A 
ENDBRANCH   5   9
BRANCH   7  15
ATOM     15  C   LIG    1       17.025  58.903  22.859  0.00  0.00    +0.310 C 
BRANCH  15  16
ATOM     16  C   LIG    1       18.085  59.594  21.999  0.00  0.00    -0.060 C 
ATOM     17  C   LIG    1       18.896  60.719  22.645  0.00  0.00    +0.020 C 
ATOM     18  C   LIG    1       19.553  59.365  22.366  0.00  0.00    +0.030 C 
ENDBRANCH  15  16
ENDBRANCH   7  15
TORSDOF 3
ENDMDL
MODEL 
REMARK VINA RESULT:    -7.197      0.000      0.000
REMARK INTER + INTRA:         -10.602
REMARK INTER:                  -9.640
REMARK INTRA:                  -0.962
REMARK UNBOUND:                -0.881
REMARK  Name = ZINC000863117726
REMARK                            x       y       z     vdW  Elec       q    Type
REMARK                         _______ _______ _______ _____ _____    ______ ____
ROOT
ATOM      1  C   LIG    1       14.362  61.417  24.872  0.00  0.00    +0.060 C 
ATOM      2  N   LIG    1       15.353  60.609  24.937  0.00  0.00    -0.230 NA
ENDROOT
BRANCH   1   4
ATOM      3  C   LIG    1       13.470  62.250  22.714  0.00  0.00    +0.020 C 
ATOM      4  C   LIG    1       14.388  62.565  23.897  0.00  0.00    +0.030 C 
ENDBRANCH   1   4
BRANCH   2   5
ATOM      5  N   LIG    1       16.409  60.721  24.023  0.00  0.00    -0.660 N 
ATOM      6  H   LIG    1       16.669  61.593  23.687  0.00  0.00    +0.380 HD
BRANCH   5   7
ATOM      7  C   LIG    1       17.122  59.521  23.577  0.00  0.00    +0.260 C 
ATOM      8  C   LIG    1       16.122  58.382  23.265  0.00  0.00    -0.000 C 
ATOM      9  C   LIG    1       15.974  58.492  21.726  0.00  0.00    +0.200 C 
ATOM     10  O   LIG    1       17.304  58.839  21.284  0.00  0.00    -0.360 OA
ATOM     11  C   LIG    1       17.831  59.784  22.235  0.00  0.00    +0.090 C 
ATOM     12  C   LIG    1       19.340  59.578  22.389  0.00  0.00    +0.070 C 
ATOM     13  C   LIG    1       17.544  61.211  21.764  0.00  0.00    +0.030 C 
ENDBRANCH   5   7
ENDBRANCH   2   5
BRANCH   1  14
ATOM     14  C   LIG    1       13.170  61.220  25.773  0.00  0.00    +0.110 C 
BRANCH  14  15
ATOM     15  C   LIG    1       13.331  62.079  27.028  0.00  0.00    +0.070 C 
BRANCH  15  16
ATOM     16  C   LIG    1       12.269  63.147  27.046  0.00  0.00    -0.080 A 
ATOM     17  C   LIG    1       12.622  64.477  26.919  0.00  0.00    +0.000 A 
ATOM     18  C   LIG    1       11.647  65.457  26.936  0.00  0.00    +0.000 A 
ATOM     19  C   LIG    1       10.318  65.106  27.078  0.00  0.00    +0.000 A 
ATOM     20  C   LIG    1        9.964  63.775  27.205  0.00  0.00    +0.000 A 
ATOM     21  C   LIG    1       10.938  62.796  27.184  0.00  0.00    +0.000 A 
ENDBRANCH  15  16
ENDBRANCH  14  15
ENDBRANCH   1  14
TORSDOF 6
ENDMDL
MODEL 
REMARK VINA RESULT:    -7.111      0.000      0.000
REMARK INTER + INTRA:         -10.314
REMARK INTER:                  -9.525
REMARK INTRA:                  -0.788
REMARK UNBOUND:                -0.708
REMARK  Name = ZINC000270689203
REMARK                            x       y       z     vdW  Elec       q    Type
REMARK                         _______ _______ _______ _____ _____    ______ ____
ROOT
ATOM      1  C   LIG    1       15.484  59.651  23.284  0.00  0.00    +0.170 C 
ATOM      2  C   LIG    1       14.768  60.995  23.124  0.00  0.00    +0.080 C 
ATOM      3  C   LIG    1       14.789  61.740  24.460  0.00  0.00    +0.270 C 
ATOM      4  N   LIG    1       14.105  60.939  25.482  0.00  0.00    -0.380 N 
ATOM      5  C   LIG    1       14.827  59.678  25.693  0.00  0.00    +0.190 C 
ATOM      6  C   LIG    1       16.276  59.979  26.082  0.00  0.00    +0.090 C 
ATOM      7  H   LIG    1       13.164  60.739  25.177  0.00  0.00    +0.430 HD
ATOM      8  C   LIG    1       14.810  58.853  24.404  0.00  0.00    +0.080 C 
ENDROOT
BRANCH   1   9
ATOM      9  N   LIG    1       15.401  58.897  22.026  0.00  0.00    -0.380 N 
ATOM     10  C   LIG    1       14.987  57.516  22.309  0.00  0.00    +0.340 C 
ATOM     11  H   LIG    1       14.725  59.333  21.417  0.00  0.00    +0.430 HD
BRANCH   9  12
ATOM     12  C   LIG    1       16.716  58.889  21.372  0.00  0.00    +0.270 C 
BRANCH  12  13
ATOM     13  C   LIG    1       17.786  58.467  22.381  0.00  0.00    +0.200 C 
BRANCH  13  15
ATOM     14  C   LIG    1       19.768  60.220  22.349  0.00  0.00    +0.120 C 
ATOM     15  C   LIG    1       18.888  59.443  22.363  0.00  0.00    -0.260 C 
ENDBRANCH  13  15
ENDBRANCH  12  13
ENDBRANCH   9  12
ENDBRANCH   1   9
BRANCH   4  16
ATOM     16  C   LIG    1       14.061  61.691  26.743  0.00  0.00    +0.320 C 
BRANCH  16  17
ATOM     17  C   LIG    1       12.891  62.641  26.721  0.00  0.00    -0.170 A 
ATOM     18  C   LIG    1       11.627  62.173  26.416  0.00  0.00    +0.030 A 
ATOM     19  C   LIG    1       10.554  63.044  26.394  0.00  0.00    +0.030 A 
ATOM     20  C   LIG    1       10.745  64.383  26.680  0.00  0.00    +0.060 A 
ATOM     21  C   LIG    1       12.009  64.851  26.987  0.00  0.00    +0.030 A 
ATOM     22  C   LIG    1       13.082  63.979  27.011  0.00  0.00    +0.040 A 
ENDBRANCH  16  17
ENDBRANCH   4  16
TORSDOF 6
ENDMDL
MODEL 
REMARK VINA RESULT:    -7.087      0.000      0.000
REMARK INTER + INTRA:         -10.284
REMARK INTER:                  -9.750
REMARK INTRA:                  -0.534
REMARK UNBOUND:                -0.712
REMARK  Name = ZINC001239448477
REMARK                            x       y       z     vdW  Elec       q    Type
REMARK                         _______ _______ _______ _____ _____    ______ ____
ROOT
ATOM      1  C   LIG    1       14.448  61.292  23.925  0.00  0.00    +0.560 C 
ATOM      2  S   LIG    1       13.833  62.195  22.607  0.00  0.00    -0.580 S 
ENDROOT
BRANCH   1   5
ATOM      3  C   LIG    1       12.943  63.231  26.491  0.00  0.00    +0.170 C 
ATOM      4  C   LIG    1       14.016  63.205  25.398  0.00  0.00    +0.370 C 
ATOM      5  N   LIG    1       14.415  61.808  25.169  0.00  0.00    -0.600 N 
ATOM      6  C   LIG    1       14.780  60.991  26.337  0.00  0.00    +0.300 C 
ATOM      7  C   LIG    1       13.671  61.121  27.386  0.00  0.00    +0.270 C 
ATOM      8  N   LIG    1       13.445  62.541  27.686  0.00  0.00    -0.510 N 
ATOM      9  H   LIG    1       12.767  62.623  28.429  0.00  0.00    +0.430 HD
ATOM     10  H   LIG    1       14.314  62.964  27.976  0.00  0.00    +0.430 HD
BRANCH   3  11
ATOM     11  C   LIG    1       12.607  64.682  26.844  0.00  0.00    +0.070 C 
BRANCH  11  13
ATOM     12  C   LIG    1       10.728  66.277  27.249  0.00  0.00    +0.040 C 
ATOM     13  C   LIG    1       11.113  64.799  27.148  0.00  0.00    +0.010 C 
ENDBRANCH  11  13
ENDBRANCH   3  11
ENDBRANCH   1   5
BRANCH   1  14
ATOM     14  N   LIG    1       14.964  60.064  23.718  0.00  0.00    -0.670 N 
ATOM     15  H   LIG    1       15.015  59.430  24.451  0.00  0.00    +0.390 HD
BRANCH  14  16
ATOM     16  C   LIG    1       15.448  59.687  22.388  0.00  0.00    +0.320 C 
ATOM     17  C   LIG    1       15.127  58.214  22.127  0.00  0.00    +0.060 C 
BRANCH  16  18
ATOM     18  C   LIG    1       16.939  59.898  22.317  0.00  0.00    -0.110 A 
ATOM     19  C   LIG    1       17.447  61.158  22.063  0.00  0.00    -0.010 A 
ATOM     20  C   LIG    1       18.814  61.351  21.999  0.00  0.00    +0.020 A 
ATOM     21  C   LIG    1       19.673  60.284  22.188  0.00  0.00    +0.020 A 
ATOM     22  C   LIG    1       19.164  59.024  22.443  0.00  0.00    +0.020 A 
ATOM     23  C   LIG    1       17.797  58.832  22.512  0.00  0.00    +0.030 A 
ENDBRANCH  16  18
ENDBRANCH  14  16
ENDBRANCH   1  14
TORSDOF 6
ENDMDL
MODEL 
REMARK VINA RESULT:    -6.679      0.000      0.000
REMARK INTER + INTRA:         -10.027
REMARK INTER:                  -9.620
REMARK INTRA:                  -0.407
REMARK UNBOUND:                -0.615
REMARK  Name = ZINC001101732056
REMARK                            x       y       z     vdW  Elec       q    Type
REMARK                         _______ _______ _______ _____ _____    ______ ____
ROOT
ATOM      1  N   LIG    1       16.128  60.545  23.899  0.00  0.00    -0.390 N 
ATOM      2  C   LIG    1       15.154  60.583  25.011  0.00  0.00    +0.270 C 
ATOM      3  C   LIG    1       14.071  61.610  24.629  0.00  0.00    +0.000 C 
ATOM      4  C   LIG    1       14.478  62.123  23.228  0.00  0.00    +0.010 C 
ATOM      5  C   LIG    1       13.245  62.304  22.340  0.00  0.00    +0.080 C 
ATOM      6  C   LIG    1       15.383  60.985  22.691  0.00  0.00    +0.270 C 
ATOM      7  H   LIG    1       16.892  61.177  24.084  0.00  0.00    +0.430 HD
ENDROOT
BRANCH   1   8
ATOM      8  C   LIG    1       16.633  59.178  23.713  0.00  0.00    +0.260 C 
BRANCH   8   9
ATOM      9  C   LIG    1       17.227  59.041  22.310  0.00  0.00    +0.200 C 
BRANCH   9  11
ATOM     10  C   LIG    1       19.729  59.903  22.324  0.00  0.00    +0.100 C 
ATOM     11  C   LIG    1       18.619  59.521  22.318  0.00  0.00    -0.240 C 
ENDBRANCH   9  11
ENDBRANCH   8   9
ENDBRANCH   1   8
BRANCH   3  12
ATOM     12  C   LIG    1       14.057  62.764  25.634  0.00  0.00    +0.290 C 
BRANCH  12  13
ATOM     13  N   LIG    1       12.685  63.256  25.791  0.00  0.00    -0.740 N 
ATOM     14  H   LIG    1       11.984  62.936  25.202  0.00  0.00    +0.400 HD
ATOM     15  C   LIG    1       12.398  64.153  26.756  0.00  0.00    +0.520 C 
ATOM     16  O   LIG    1       13.274  64.553  27.492  0.00  0.00    -0.520 OA
BRANCH  15  17
ATOM     17  C   LIG    1       10.987  64.659  26.918  0.00  0.00    -0.010 C 
ATOM     18  C   LIG    1       10.325  63.953  28.103  0.00  0.00    +0.040 C 
BRANCH  17  19
ATOM     19  C   LIG    1       11.013  66.167  27.170  0.00  0.00    +0.030 C 
ATOM     20  C   LIG    1       10.117  66.500  28.366  0.00  0.00    +0.020 C 
ENDBRANCH  17  19
ENDBRANCH  15  17
ENDBRANCH  12  13
ENDBRANCH   3  12
TORSDOF 7
ENDMDL
MODEL 
REMARK VINA RESULT:    -7.583      0.000      0.000
REMARK INTER + INTRA:         -10.977
REMARK INTER:                 -10.377
REMARK INTRA:                  -0.600
REMARK UNBOUND:                -1.178
REMARK  Name = ZINC001044855531
REMARK                            x       y       z     vdW  Elec       q    Type
REMARK                         _______ _______ _______ _____ _____    ______ ____
ROOT
ATOM      1  C   LIG    1       14.335  61.899  25.890  0.00  0.00    +0.520 C 
ATOM      2  N   LIG    1       14.294  61.108  24.800  0.00  0.00    -0.630 N 
ATOM      3  C   LIG    1       13.824  61.633  23.511  0.00  0.00    +0.300 C 
ATOM      4  C   LIG    1       14.891  61.356  22.447  0.00  0.00    +0.030 C 
ATOM      5  C   LIG    1       15.216  59.861  22.434  0.00  0.00    +0.170 C 
ATOM      6  C   LIG    1       15.775  59.447  23.798  0.00  0.00    +0.030 C 
ATOM      7  C   LIG    1       14.725  59.705  24.876  0.00  0.00    +0.230 C 
ATOM      8  C   LIG    1       15.324  59.421  26.255  0.00  0.00    +0.060 C 
ATOM      9  O   LIG    1       14.630  61.429  26.969  0.00  0.00    -0.500 OA
ENDROOT
BRANCH   5  10
ATOM     10  N   LIG    1       16.215  59.585  21.394  0.00  0.00    -0.510 N 
ATOM     11  H   LIG    1       16.463  60.446  20.928  0.00  0.00    +0.430 HD
ATOM     12  H   LIG    1       15.831  58.938  20.722  0.00  0.00    +0.430 HD
BRANCH  10  13
ATOM     13  C   LIG    1       17.414  59.000  22.009  0.00  0.00    +0.280 C 
BRANCH  13  14
ATOM     14  C   LIG    1       18.636  59.849  21.655  0.00  0.00    -0.090 C 
ATOM     15  C   LIG    1       19.144  60.831  22.711  0.00  0.00    +0.050 C 
ATOM     16  C   LIG    1       19.938  59.560  22.404  0.00  0.00    +0.070 C 
ENDBRANCH  13  14
ENDBRANCH  10  13
ENDBRANCH   5  10
BRANCH   1  17
ATOM     17  C   LIG    1       14.014  63.366  25.770  0.00  0.00    +0.100 C 
BRANCH  17  22
ATOM     18  C   LIG    1        8.722  64.356  27.869  0.00  0.00    +0.090 C 
ATOM     19  C   LIG    1       10.102  64.098  27.322  0.00  0.00    -0.080 A 
ATOM     20  C   LIG    1       10.451  62.829  26.896  0.00  0.00    +0.010 A 
ATOM     21  C   LIG    1       11.716  62.593  26.393  0.00  0.00    +0.010 A 
ATOM     22  C   LIG    1       12.633  63.624  26.316  0.00  0.00    -0.080 A 
ATOM     23  C   LIG    1       12.285  64.893  26.741  0.00  0.00    +0.020 A 
ATOM     24  C   LIG    1       11.018  65.130  27.240  0.00  0.00    -0.080 A 
ATOM     25  C   LIG    1       10.636  66.513  27.703  0.00  0.00    +0.090 C 
ENDBRANCH  17  22
ENDBRANCH   1  17
TORSDOF 5
ENDMDL
MODEL 
REMARK VINA RESULT:    -8.709      0.000      0.000
REMARK INTER + INTRA:         -11.718
REMARK INTER:                 -11.273
REMARK INTRA:                  -0.445
REMARK UNBOUND:                -0.463
REMARK  Name = ZINC000005155170
REMARK                            x       y       z     vdW  Elec       q    Type
REMARK                         _______ _______ _______ _____ _____    ______ ____
ROOT
ATOM      1  O   LIG    1       15.790  57.379  21.297  0.00  0.00    -0.510 OA
ATOM      2  C   LIG    1       16.029  58.504  21.705  0.00  0.00    +0.540 A 
ATOM      3  C   LIG    1       17.353  58.969  21.792  0.00  0.00    -0.040 A 
ATOM      4  C   LIG    1       17.580  60.233  22.254  0.00  0.00    +0.110 A 
ATOM      5  N   LIG    1       16.559  61.007  22.612  0.00  0.00    -0.530 NA
ATOM      6  C   LIG    1       15.313  60.579  22.534  0.00  0.00    +0.380 A 
ATOM      7  N   LIG    1       15.026  59.329  22.077  0.00  0.00    -0.610 N 
ATOM      8  H   LIG    1       14.105  59.028  22.025  0.00  0.00    +0.430 HD
ENDROOT
BRANCH   4   9
ATOM      9  C   LIG    1       18.991  60.754  22.355  0.00  0.00    +0.530 C 
ATOM     10  F   LIG    1       19.890  59.724  22.062  0.00  0.00    -0.160 F 
ATOM     11  F   LIG    1       19.222  61.221  23.654  0.00  0.00    -0.160 F 
ATOM     12  F   LIG    1       19.168  61.802  21.445  0.00  0.00    -0.160 F 
ENDBRANCH   4   9
BRANCH   6  13
ATOM     13  S   LIG    1       13.999  61.646  23.022  0.00  0.00    +0.040 S 
BRANCH  13  14
ATOM     14  C   LIG    1       14.246  61.650  24.815  0.00  0.00    +0.170 C 
BRANCH  14  15
ATOM     15  C   LIG    1       13.306  62.642  25.450  0.00  0.00    -0.060 A 
ATOM     16  C   LIG    1       13.802  63.806  26.006  0.00  0.00    +0.040 A 
ATOM     17  C   LIG    1       12.939  64.716  26.589  0.00  0.00    +0.070 A 
ATOM     18  C   LIG    1       11.580  64.463  26.613  0.00  0.00    -0.170 A 
ATOM     19  C   LIG    1       11.085  63.299  26.054  0.00  0.00    +0.070 A 
ATOM     20  C   LIG    1       11.946  62.391  25.469  0.00  0.00    +0.040 A 
BRANCH  18  21
ATOM     21  C   LIG    1       10.640  65.454  27.247  0.00  0.00    +0.510 C 
ATOM     22  F   LIG    1       11.196  66.735  27.175  0.00  0.00    -0.170 F 
ATOM     23  F   LIG    1       10.434  65.110  28.587  0.00  0.00    -0.170 F 
ATOM     24  F   LIG    1        9.417  65.438  26.568  0.00  0.00    -0.170 F 
ENDBRANCH  18  21
ENDBRANCH  14  15
ENDBRANCH  13  14
ENDBRANCH   6  13
TORSDOF 5
ENDMDL
MODEL 
REMARK VINA RESULT:    -6.726      0.000      0.000
REMARK INTER + INTRA:          -9.044
REMARK INTER:                  -8.744
REMARK INTRA:                  -0.300
REMARK UNBOUND:                -0.352
REMARK  Name = ZINC000905191406
REMARK                            x       y       z     vdW  Elec       q    Type
REMARK                         _______ _______ _______ _____ _____    ______ ____
ROOT
ATOM      1  C   LIG    1       13.994  61.140  24.971  0.00  0.00    -0.170 C 
ENDROOT
BRANCH   1   2
ATOM      2  C   LIG    1       13.337  62.359  25.565  0.00  0.00    -0.050 A 
ATOM      3  C   LIG    1       14.094  63.475  25.867  0.00  0.00    +0.050 A 
ATOM      4  C   LIG    1       13.493  64.594  26.413  0.00  0.00    +0.030 A 
ATOM      5  C   LIG    1       12.132  64.599  26.657  0.00  0.00    +0.070 A 
ATOM      6  C   LIG    1       11.371  63.479  26.354  0.00  0.00    +0.080 A 
ATOM      7  F   LIG    1       10.040  63.481  26.591  0.00  0.00    -0.120 F 
ATOM      8  F   LIG    1       11.543  65.692  27.189  0.00  0.00    -0.130 F 
ATOM      9  C   LIG    1       11.974  62.363  25.804  0.00  0.00    +0.020 A 
ENDBRANCH   1   2
BRANCH   1  10
ATOM     10  S   LIG    1       14.719  61.568  23.364  0.00  0.00    +1.270 S 
ATOM     11  O   LIG    1       13.695  62.014  22.486  0.00  0.00    -0.810 OA
BRANCH  10  12
ATOM     12  C   LIG    1       15.370  59.981  22.775  0.00  0.00    -0.250 C 
BRANCH  12  13
ATOM     13  C   LIG    1       16.699  60.211  22.053  0.00  0.00    +0.310 C 
ATOM     14  F   LIG    1       16.888  59.208  21.095  0.00  0.00    -0.190 F 
ATOM     15  F   LIG    1       16.677  61.459  21.422  0.00  0.00    -0.190 F 
BRANCH  13  17
ATOM     16  C   LIG    1       19.138  59.763  22.356  0.00  0.00    +0.040 C 
ATOM     17  C   LIG    1       17.845  60.170  23.065  0.00  0.00    +0.030 C 
ENDBRANCH  13  17
ENDBRANCH  12  13
ENDBRANCH  10  12
ENDBRANCH   1  10
TORSDOF 5
ENDMDL
MODEL 
REMARK VINA RESULT:    -7.645      0.000      0.000
REMARK INTER + INTRA:         -11.552
REMARK INTER:                 -11.045
REMARK INTRA:                  -0.506
REMARK UNBOUND:                -0.778
REMARK  Name = ZINC001118762903
REMARK                            x       y       z     vdW  Elec       q    Type
REMARK                         _______ _______ _______ _____ _____    ______ ____
ROOT
ATOM      1  N   LIG    1       14.319  62.371  25.363  0.00  0.00    -0.700 N 
ATOM      2  H   LIG    1       14.361  61.692  26.055  0.00  0.00    +0.420 HD
ATOM      3  C   LIG    1       14.573  62.043  24.081  0.00  0.00    +0.510 C 
ATOM      4  O   LIG    1       14.521  62.891  23.215  0.00  0.00    -0.520 OA
ENDROOT
BRANCH   3   5
ATOM      5  C   LIG    1       14.917  60.632  23.725  0.00  0.00    +0.510 C 
ATOM      6  N   LIG    1       15.138  60.296  22.438  0.00  0.00    -0.700 N 
ATOM      7  H   LIG    1       15.073  60.970  21.743  0.00  0.00    +0.420 HD
ATOM      8  O   LIG    1       14.998  59.789  24.593  0.00  0.00    -0.520 OA
BRANCH   6   9
ATOM      9  C   LIG    1       15.476  58.915  22.088  0.00  0.00    +0.280 C 
BRANCH   9  10
ATOM     10  C   LIG    1       16.895  58.866  21.518  0.00  0.00    +0.060 C 
BRANCH  10  11
ATOM     11  C   LIG    1       17.903  59.164  22.630  0.00  0.00    -0.010 C 
ATOM     12  C   LIG    1       19.353  59.424  22.217  0.00  0.00    +0.080 C 
ATOM     13  C   LIG    1       18.475  60.581  22.704  0.00  0.00    +0.200 C 
ATOM     14  F   LIG    1       18.741  61.103  23.974  0.00  0.00    -0.160 F 
ATOM     15  F   LIG    1       18.037  61.504  21.750  0.00  0.00    -0.160 F 
ENDBRANCH  10  11
ENDBRANCH   9  10
ENDBRANCH   6   9
ENDBRANCH   3   5
BRANCH   1  16
ATOM     16  C   LIG    1       13.981  63.753  25.712  0.00  0.00    +0.340 C 
BRANCH  16  21
ATOM     17  C   LIG    1       10.798  65.003  27.331  0.00  0.00    +0.010 A 
ATOM     18  C   LIG    1        9.968  63.890  27.196  0.00  0.00    +0.050 A 
ATOM     19  C   LIG    1       10.445  62.748  26.585  0.00  0.00    +0.010 A 
ATOM     20  C   LIG    1       11.742  62.706  26.106  0.00  0.00    +0.040 A 
ATOM     21  C   LIG    1       12.569  63.807  26.237  0.00  0.00    -0.110 A 
ATOM     22  C   LIG    1       12.104  64.956  26.841  0.00  0.00    +0.060 A 
BRANCH  17  24
ATOM     23  C   LIG    1        9.909  67.166  28.482  0.00  0.00    +0.070 C 
ATOM     24  C   LIG    1       10.310  66.191  27.964  0.00  0.00    -0.160 C 
ENDBRANCH  17  24
ENDBRANCH  16  21
ENDBRANCH   1  16
TORSDOF 7
ENDMDL
MODEL 
REMARK VINA RESULT:    -7.571      0.000      0.000
REMARK INTER + INTRA:         -11.393
REMARK INTER:                 -10.660
REMARK INTRA:                  -0.733
REMARK UNBOUND:                -0.723
REMARK  Name = ZINC000379641169
REMARK                            x       y       z     vdW  Elec       q    Type
REMARK                         _______ _______ _______ _____ _____    ______ ____
ROOT
ATOM      1  C   LIG    1       14.235  62.667  25.305  0.00  0.00    +0.040 C 
ENDROOT
BRANCH   1   3
ATOM      2  C   LIG    1       13.701  62.266  22.898  0.00  0.00    +0.010 C 
ATOM      3  C   LIG    1       13.887  61.603  24.263  0.00  0.00    +0.180 C 
BRANCH   3   4
ATOM      4  N   LIG    1       14.975  60.618  24.187  0.00  0.00    -0.530 NA
ATOM      5  C   LIG    1       14.680  59.442  25.015  0.00  0.00    +0.210 C 
BRANCH   4   6
ATOM      6  C   LIG    1       15.235  60.229  22.795  0.00  0.00    +0.220 C 
BRANCH   6   7
ATOM      7  C   LIG    1       16.722  60.165  22.561  0.00  0.00    -0.090 A 
ATOM      8  C   LIG    1       17.423  61.315  22.245  0.00  0.00    +0.000 A 
ATOM      9  C   LIG    1       18.787  61.256  22.031  0.00  0.00    +0.000 A 
ATOM     10  C   LIG    1       19.451  60.048  22.131  0.00  0.00    +0.010 A 
ATOM     11  C   LIG    1       18.751  58.898  22.448  0.00  0.00    +0.020 A 
ATOM     12  C   LIG    1       17.387  58.958  22.667  0.00  0.00    +0.010 A 
ENDBRANCH   6   7
ENDBRANCH   4   6
ENDBRANCH   3   4
ENDBRANCH   1   3
BRANCH   1  13
ATOM     13  C   LIG    1       13.410  62.432  26.572  0.00  0.00    +0.260 C 
BRANCH  13  14
ATOM     14  N   LIG    1       13.591  63.562  27.492  0.00  0.00    -0.510 N 
ATOM     15  H   LIG    1       14.185  64.255  27.061  0.00  0.00    +0.430 HD
ATOM     16  H   LIG    1       14.021  63.236  28.345  0.00  0.00    +0.420 HD
BRANCH  14  17
ATOM     17  C   LIG    1       12.285  64.159  27.800  0.00  0.00    +0.160 C 
ATOM     18  C   LIG    1       11.965  65.244  26.770  0.00  0.00    +0.040 C 
ATOM     19  C   LIG    1       10.604  65.867  27.090  0.00  0.00    +0.000 C 
ATOM     20  C   LIG    1        9.524  64.783  27.043  0.00  0.00    +0.030 C 
ATOM     21  C   LIG    1        9.844  63.699  28.074  0.00  0.00    -0.010 C 
ATOM     22  C   LIG    1        8.765  62.615  28.027  0.00  0.00    +0.040 C 
ATOM     23  C   LIG    1       10.644  66.487  28.489  0.00  0.00    +0.030 C 
ATOM     24  C   LIG    1       11.206  63.077  27.753  0.00  0.00    +0.040 C 
ENDBRANCH  14  17
ENDBRANCH  13  14
ENDBRANCH   1  13
TORSDOF 7
ENDMDL
MODEL 
REMARK VINA RESULT:    -6.485      0.000      0.000
REMARK INTER + INTRA:         -11.328
REMARK INTER:                 -10.023
REMARK INTRA:                  -1.305
REMARK UNBOUND:                -1.810
REMARK  Name = ZINC000048169411
REMARK                            x       y       z     vdW  Elec       q    Type
REMARK                         _______ _______ _______ _____ _____    ______ ____
ROOT
ATOM      1  C   LIG    1       15.616  60.618  25.182  0.00  0.00    +0.060 C 
ENDROOT
BRANCH   1   3
ATOM      2  O   LIG    1       14.353  60.791  27.168  0.00  0.00    -0.530 OA
ATOM      3  C   LIG    1       14.559  61.237  26.059  0.00  0.00    +0.510 C 
ATOM      4  N   LIG    1       13.836  62.283  25.608  0.00  0.00    -0.730 N 
ATOM      5  H   LIG    1       14.000  62.639  24.721  0.00  0.00    +0.400 HD
BRANCH   4   6
ATOM      6  C   LIG    1       12.805  62.880  26.459  0.00  0.00    +0.230 C 
ATOM      7  C   LIG    1       12.966  64.401  26.465  0.00  0.00    +0.000 C 
ATOM      8  C   LIG    1       11.887  65.025  27.353  0.00  0.00    +0.010 C 
ATOM      9  C   LIG    1       10.504  64.661  26.808  0.00  0.00    +0.000 C 
ATOM     10  C   LIG    1       10.343  63.140  26.803  0.00  0.00    +0.020 C 
ATOM     11  C   LIG    1       11.422  62.515  25.916  0.00  0.00    +0.010 C 
ENDBRANCH   4   6
ENDBRANCH   1   3
BRANCH   1  12
ATOM     12  C   LIG    1       16.181  59.372  25.866  0.00  0.00    +0.060 C 
BRANCH  12  13
ATOM     13  C   LIG    1       15.481  58.127  25.320  0.00  0.00    +0.160 C 
BRANCH  13  14
ATOM     14  O   LIG    1       15.023  58.381  23.990  0.00  0.00    -0.390 OA
BRANCH  14  15
ATOM     15  C   LIG    1       15.443  57.407  23.034  0.00  0.00    +0.170 C 
BRANCH  15  16
ATOM     16  C   LIG    1       15.756  58.097  21.705  0.00  0.00    +0.080 C 
BRANCH  16  17
ATOM     17  C   LIG    1       16.835  59.127  21.916  0.00  0.00    -0.080 A 
ATOM     18  C   LIG    1       16.572  60.462  21.672  0.00  0.00    +0.000 A 
ATOM     19  C   LIG    1       17.562  61.409  21.866  0.00  0.00    +0.000 A 
ATOM     20  C   LIG    1       18.814  61.018  22.303  0.00  0.00    +0.000 A 
ATOM     21  C   LIG    1       19.076  59.684  22.548  0.00  0.00    +0.000 A 
ATOM     22  C   LIG    1       18.085  58.738  22.359  0.00  0.00    +0.000 A 
ENDBRANCH  16  17
ENDBRANCH  15  16
ENDBRANCH  14  15
ENDBRANCH  13  14
ENDBRANCH  12  13
ENDBRANCH   1  12
TORSDOF 8
ENDMDL
MODEL 
REMARK VINA RESULT:    -8.272      0.000      0.000
REMARK INTER + INTRA:         -11.208
REMARK INTER:                 -10.556
REMARK INTRA:                  -0.652
REMARK UNBOUND:                -0.760
REMARK  Name = ZINC000623508097
REMARK                            x       y       z     vdW  Elec       q    Type
REMARK                         _______ _______ _______ _____ _____    ______ ____
ROOT
ATOM      1  C   LIG    1       13.439  62.013  26.124  0.00  0.00    +0.160 C 
ATOM      2  C   LIG    1       14.135  63.198  25.445  0.00  0.00    +0.040 C 
ATOM      3  C   LIG    1       13.876  64.452  26.278  0.00  0.00    +0.110 C 
ATOM      4  C   LIG    1       12.404  64.607  26.557  0.00  0.00    -0.060 A 
ATOM      5  C   LIG    1       11.953  65.855  26.961  0.00  0.00    -0.010 A 
ATOM      6  C   LIG    1       10.612  66.062  27.239  0.00  0.00    +0.130 A 
ATOM      7  C   LIG    1        9.715  65.012  27.113  0.00  0.00    +0.000 A 
ATOM      8  C   LIG    1       10.167  63.773  26.709  0.00  0.00    +0.040 A 
ATOM      9  C   LIG    1       11.510  63.567  26.427  0.00  0.00    -0.100 A 
ATOM     10  C   LIG    1       11.929  62.191  25.976  0.00  0.00    +0.110 C 
ENDROOT
BRANCH   1  11
ATOM     11  N   LIG    1       13.853  60.760  25.480  0.00  0.00    -0.500 N 
ATOM     12  H   LIG    1       13.536  59.976  26.031  0.00  0.00    +0.430 HD
ATOM     13  H   LIG    1       13.450  60.707  24.556  0.00  0.00    +0.430 HD
BRANCH  11  15
ATOM     14  C   LIG    1       15.887  59.843  26.489  0.00  0.00    +0.090 C 
ATOM     15  C   LIG    1       15.318  60.724  25.376  0.00  0.00    +0.200 C 
BRANCH  15  16
ATOM     16  C   LIG    1       15.718  60.151  24.016  0.00  0.00    -0.070 C 
ATOM     17  C   LIG    1       16.005  58.649  23.940  0.00  0.00    +0.060 C 
ATOM     18  C   LIG    1       17.157  59.654  23.854  0.00  0.00    +0.040 C 
BRANCH  18  19
ATOM     19  C   LIG    1       17.823  59.851  22.491  0.00  0.00    -0.030 C 
ATOM     20  C   LIG    1       18.895  60.937  22.379  0.00  0.00    +0.030 C 
ATOM     21  C   LIG    1       19.297  59.461  22.363  0.00  0.00    +0.030 C 
ENDBRANCH  18  19
ENDBRANCH  15  16
ENDBRANCH  11  15
ENDBRANCH   1  11
BRANCH   6  22
ATOM     22  O   LIG    1       10.177  67.288  27.633  0.00  0.00    -0.500 OA
ATOM     23  H   LIG    1        9.815  67.308  28.529  0.00  0.00    +0.400 HD
ENDBRANCH   6  22
TORSDOF 5
ENDMDL
MODEL 
REMARK VINA RESULT:    -6.806      0.000      0.000
REMARK INTER + INTRA:          -9.232
REMARK INTER:                  -8.981
REMARK INTRA:                  -0.251
REMARK UNBOUND:                -0.437
REMARK  Name = ZINC000429030702
REMARK                            x       y       z     vdW  Elec       q    Type
REMARK                         _______ _______ _______ _____ _____    ______ ____
ROOT
ATOM      1  N   LIG    1       13.138  62.645  26.688  0.00  0.00    -0.340 N 
ATOM      2  C   LIG    1       12.960  61.307  27.203  0.00  0.00    +0.250 C 
ATOM      3  C   LIG    1       14.282  60.523  27.231  0.00  0.00    +0.210 C 
ATOM      4  N   LIG    1       15.108  60.732  26.022  0.00  0.00    -0.570 NA
ATOM      5  C   LIG    1       14.370  60.727  24.780  0.00  0.00    +0.200 C 
ATOM      6  C   LIG    1       13.965  62.176  24.429  0.00  0.00    -0.010 C 
ATOM      7  C   LIG    1       13.571  62.242  22.952  0.00  0.00    +0.070 C 
ATOM      8  C   LIG    1       12.838  62.628  25.243  0.00  0.00    +0.250 C 
ATOM      9  H   LIG    1       14.091  62.941  26.835  0.00  0.00    +0.430 HD
ENDROOT
BRANCH   1  13
ATOM     10  C   LIG    1        9.744  64.399  27.271  0.00  0.00    +0.080 C 
ATOM     11  C   LIG    1       11.076  64.163  26.556  0.00  0.00    +0.010 C 
ATOM     12  C   LIG    1       12.262  65.039  26.964  0.00  0.00    +0.100 C 
ATOM     13  C   LIG    1       12.222  63.565  27.374  0.00  0.00    +0.090 C 
ENDBRANCH   1  13
BRANCH   4  14
ATOM     14  C   LIG    1       16.224  59.779  25.975  0.00  0.00    +0.200 C 
BRANCH  14  15
ATOM     15  C   LIG    1       16.559  59.454  24.519  0.00  0.00    +0.020 C 
BRANCH  15  16
ATOM     16  C   LIG    1       17.746  60.306  24.065  0.00  0.00    +0.020 C 
BRANCH  16  17
ATOM     17  C   LIG    1       17.957  60.127  22.560  0.00  0.00    -0.070 C 
ATOM     18  C   LIG    1       17.442  61.364  21.822  0.00  0.00    +0.030 C 
ATOM     19  C   LIG    1       17.190  58.891  22.081  0.00  0.00    +0.030 C 
ATOM     20  C   LIG    1       19.448  59.944  22.273  0.00  0.00    +0.020 C 
ENDBRANCH  16  17
ENDBRANCH  15  16
ENDBRANCH  14  15
ENDBRANCH   4  14
TORSDOF 5
ENDMDL
MODEL 
REMARK VINA RESULT:    -7.926      0.000      0.000
REMARK INTER + INTRA:          -9.862
REMARK INTER:                  -9.249
REMARK INTRA:                  -0.614
REMARK UNBOUND:                -0.546
REMARK  Name = ZINC001239630140
REMARK                            x       y       z     vdW  Elec       q    Type
REMARK                         _______ _______ _______ _____ _____    ______ ____
ROOT
ATOM      1  C   LIG    1       14.341  61.688  24.359  0.00  0.00    +0.020 A 
ATOM      2  C   LIG    1       14.894  62.045  23.126  0.00  0.00    -0.030 A 
ATOM      3  C   LIG    1       15.670  61.122  22.447  0.00  0.00    +0.310 A 
ATOM      4  N   LIG    1       15.889  59.922  22.952  0.00  0.00    -0.510 NA
ATOM      5  C   LIG    1       15.386  59.547  24.112  0.00  0.00    +0.310 A 
ATOM      6  F   LIG    1       16.210  61.454  21.254  0.00  0.00    -0.110 F 
ATOM      7  C   LIG    1       14.606  60.408  24.856  0.00  0.00    -0.100 A 
ENDROOT
BRANCH   1  11
ATOM      8  C   LIG    1       11.935  64.431  26.551  0.00  0.00    -0.160 A 
ATOM      9  C   LIG    1       13.326  64.586  26.523  0.00  0.00    +0.070 A 
ATOM     10  C   LIG    1       14.102  63.698  25.813  0.00  0.00    +0.020 A 
ATOM     11  C   LIG    1       13.503  62.644  25.122  0.00  0.00    -0.020 A 
ATOM     12  C   LIG    1       12.116  62.488  25.148  0.00  0.00    +0.030 A 
ATOM     13  C   LIG    1       11.338  63.369  25.862  0.00  0.00    +0.080 A 
BRANCH   8  15
ATOM     14  C   LIG    1        9.893  64.887  28.059  0.00  0.00    +0.080 C 
ATOM     15  C   LIG    1       11.104  65.379  27.308  0.00  0.00    +0.390 C 
ATOM     16  O   LIG    1       11.392  66.557  27.328  0.00  0.00    -0.450 OA
ENDBRANCH   8  15
ENDBRANCH   1  11
BRANCH   7  17
ATOM     17  C   LIG    1       14.037  59.971  26.181  0.00  0.00    +0.000 C 
ATOM     18  C   LIG    1       14.714  58.795  26.888  0.00  0.00    +0.030 C 
ATOM     19  C   LIG    1       14.885  60.215  27.430  0.00  0.00    +0.040 C 
ENDBRANCH   7  17
TORSDOF 3
ENDMDL
MODEL 
REMARK VINA RESULT:    -7.392      0.000      0.000
REMARK INTER + INTRA:          -9.435
REMARK INTER:                  -9.155
REMARK INTRA:                  -0.280
REMARK UNBOUND:                -0.313
REMARK  Name = ZINC000329946243
REMARK                            x       y       z     vdW  Elec       q    Type
REMARK                         _______ _______ _______ _____ _____    ______ ____
ROOT
ATOM      1  O   LIG    1        9.889  69.894  29.514  0.00  0.00    -0.580 OA
ATOM      2  C   LIG    1       10.660  69.146  30.086  0.00  0.00    +0.710 C 
ATOM      3  N   LIG    1       11.495  69.631  31.027  0.00  0.00    -0.720 N 
ATOM      4  H   LIG    1       12.110  69.036  31.483  0.00  0.00    +0.400 HD
ATOM      5  N   LIG    1       10.684  67.836  29.774  0.00  0.00    -0.740 N 
ATOM      6  H   LIG    1       11.298  67.240  30.231  0.00  0.00    +0.400 HD
ENDROOT
BRANCH   3   7
ATOM      7  C   LIG    1       11.473  71.057  31.360  0.00  0.00    +0.280 C 
ATOM      8  C   LIG    1       12.034  71.471  32.723  0.00  0.00    -0.090 C 
ATOM      9  C   LIG    1       11.629  72.851  33.286  0.00  0.00    +0.250 C 
ATOM     10  O   LIG    1       12.591  73.775  32.729  0.00  0.00    -0.370 OA
ATOM     11  C   LIG    1       12.775  73.350  31.361  0.00  0.00    +0.240 C 
ATOM     12  C   LIG    1       12.817  71.785  31.430  0.00  0.00    -0.070 C 
ENDBRANCH   3   7
BRANCH   5  13
ATOM     13  C   LIG    1        9.780  67.310  28.747  0.00  0.00    +0.280 C 
BRANCH  13  14
ATOM     14  C   LIG    1       10.578  66.989  27.483  0.00  0.00    +0.010 C 
BRANCH  14  15
ATOM     15  C   LIG    1       10.967  65.508  27.487  0.00  0.00    -0.010 C 
ATOM     16  C   LIG    1        9.867  64.691  26.807  0.00  0.00    +0.010 C 
ATOM     17  C   LIG    1       10.256  63.210  26.811  0.00  0.00    +0.000 C 
ATOM     18  C   LIG    1       11.573  63.027  26.054  0.00  0.00    +0.000 C 
ATOM     19  C   LIG    1       12.671  63.845  26.734  0.00  0.00    +0.000 C 
ATOM     20  C   LIG    1       12.283  65.325  26.729  0.00  0.00    +0.010 C 
ENDBRANCH  14  15
ENDBRANCH  13  14
ENDBRANCH   5  13
TORSDOF 4
ENDMDL
MODEL 
REMARK VINA RESULT:    -7.593      0.000      0.000
REMARK INTER + INTRA:         -10.319
REMARK INTER:                  -9.831
REMARK INTRA:                  -0.488
REMARK UNBOUND:                -0.508
REMARK  Name = ZINC000461757421
REMARK                            x       y       z     vdW  Elec       q    Type
REMARK                         _______ _______ _______ _____ _____    ______ ____
ROOT
ATOM      1  C   LIG    1       15.366  60.642  23.786  0.00  0.00    +0.050 A 
ATOM      2  N   LIG    1       14.504  61.554  24.079  0.00  0.00    -0.460 NA
ATOM      3  C   LIG    1       14.166  61.679  25.354  0.00  0.00    +0.100 A 
ATOM      4  C   LIG    1       14.791  60.811  26.176  0.00  0.00    -0.070 A 
ATOM      5  S   LIG    1       15.851  59.803  25.194  0.00  0.00    +0.190 S 
ENDROOT
BRANCH   3   6
ATOM      6  C   LIG    1       13.187  62.684  25.834  0.00  0.00    +0.010 A 
ATOM      7  C   LIG    1       13.631  63.890  26.373  0.00  0.00    +0.050 A 
ATOM      8  C   LIG    1       12.715  64.822  26.819  0.00  0.00    +0.070 A 
ATOM      9  C   LIG    1       11.359  64.560  26.731  0.00  0.00    -0.180 A 
ATOM     10  C   LIG    1       10.914  63.364  26.197  0.00  0.00    +0.070 A 
ATOM     11  C   LIG    1       11.820  62.429  25.743  0.00  0.00    +0.030 A 
BRANCH   9  12
ATOM     12  C   LIG    1       10.365  65.582  27.219  0.00  0.00    +0.510 C 
ATOM     13  F   LIG    1       10.094  65.361  28.574  0.00  0.00    -0.180 F 
ATOM     14  F   LIG    1        9.181  65.467  26.483  0.00  0.00    -0.180 F 
ATOM     15  F   LIG    1       10.895  66.865  27.052  0.00  0.00    -0.180 F 
ENDBRANCH   9  12
ENDBRANCH   3   6
BRANCH   1  16
ATOM     16  C   LIG    1       15.871  60.351  22.397  0.00  0.00    +0.250 C 
ATOM     17  C   LIG    1       15.650  58.873  22.073  0.00  0.00    +0.040 C 
BRANCH  16  18
ATOM     18  O   LIG    1       17.266  60.651  22.325  0.00  0.00    -0.380 OA
BRANCH  18  20
ATOM     19  C   LIG    1       19.552  59.865  22.345  0.00  0.00    +0.040 C 
ATOM     20  C   LIG    1       18.091  59.516  22.051  0.00  0.00    +0.160 C 
ENDBRANCH  18  20
ENDBRANCH  16  18
ENDBRANCH   1  16
TORSDOF 5
ENDMDL
MODEL 
REMARK VINA RESULT:    -7.940      0.000      0.000
REMARK INTER + INTRA:          -9.761
REMARK INTER:                  -9.287
REMARK INTRA:                  -0.474
REMARK UNBOUND:                -0.428
REMARK  Name = ZINC001244700186
REMARK                            x       y       z     vdW  Elec       q    Type
REMARK                         _______ _______ _______ _____ _____    ______ ____
ROOT
ATOM      1  C   LIG    1       14.775  61.609  24.578  0.00  0.00    -0.020 A 
ATOM      2  C   LIG    1       15.507  60.662  25.298  0.00  0.00    +0.090 A 
ATOM      3  C   LIG    1       16.489  59.940  24.683  0.00  0.00    +0.090 A 
ATOM      4  C   LIG    1       16.768  60.143  23.326  0.00  0.00    -0.160 A 
ATOM      5  C   LIG    1       16.037  61.091  22.598  0.00  0.00    +0.110 A 
ATOM      6  F   LIG    1       16.302  61.292  21.289  0.00  0.00    -0.100 F 
ATOM      7  C   LIG    1       15.040  61.818  23.225  0.00  0.00    +0.100 A 
ATOM      8  F   LIG    1       14.330  62.733  22.529  0.00  0.00    -0.100 F 
ENDROOT
BRANCH   1  12
ATOM      9  C   LIG    1       11.787  63.796  26.474  0.00  0.00    -0.180 A 
ATOM     10  C   LIG    1       13.103  64.233  26.490  0.00  0.00    +0.320 A 
ATOM     11  N   LIG    1       14.029  63.515  25.878  0.00  0.00    -0.500 NA
ATOM     12  C   LIG    1       13.710  62.389  25.254  0.00  0.00    +0.340 A 
ATOM     13  N   LIG    1       12.461  61.943  25.220  0.00  0.00    -0.490 NA
ATOM     14  C   LIG    1       11.489  62.611  25.816  0.00  0.00    +0.330 A 
BRANCH   9  16
ATOM     15  C   LIG    1       11.115  66.060  27.231  0.00  0.00    +0.040 C 
ATOM     16  C   LIG    1       10.704  64.588  27.161  0.00  0.00    +0.080 C 
ENDBRANCH   9  16
ENDBRANCH   1  12
BRANCH   4  17
ATOM     17  C   LIG    1       17.826  59.365  22.667  0.00  0.00    +0.390 C 
ATOM     18  O   LIG    1       17.607  58.228  22.307  0.00  0.00    -0.430 OA
ATOM     19  C   LIG    1       19.184  59.978  22.442  0.00  0.00    +0.080 C 
ENDBRANCH   4  17
TORSDOF 3
ENDMDL
MODEL 
REMARK VINA RESULT:    -8.718      0.000      0.000
REMARK INTER + INTRA:         -11.221
REMARK INTER:                 -10.942
REMARK INTRA:                  -0.279
REMARK UNBOUND:                -0.465
REMARK  Name = ZINC000973705407
REMARK                            x       y       z     vdW  Elec       q    Type
REMARK                         _______ _______ _______ _____ _____    ______ ____
ROOT
ATOM      1  C   LIG    1       11.568  64.631  27.030  0.00  0.00    +0.520 C 
ATOM      2  N   LIG    1       11.740  63.396  26.518  0.00  0.00    -0.610 N 
ATOM      3  C   LIG    1       10.587  62.529  26.237  0.00  0.00    +0.270 C 
ATOM      4  C   LIG    1       10.787  61.187  26.947  0.00  0.00    +0.010 C 
ATOM      5  C   LIG    1       12.139  60.593  26.544  0.00  0.00    +0.030 C 
ATOM      6  C   LIG    1       13.256  61.549  26.963  0.00  0.00    -0.020 C 
ATOM      7  C   LIG    1       14.619  60.947  26.627  0.00  0.00    +0.290 C 
ATOM      8  N   LIG    1       14.768  60.878  25.166  0.00  0.00    -0.610 N 
ATOM      9  C   LIG    1       14.556  62.102  24.382  0.00  0.00    +0.280 C 
ATOM     10  C   LIG    1       13.178  62.672  24.729  0.00  0.00    +0.010 C 
ATOM     11  C   LIG    1       15.092  59.718  24.560  0.00  0.00    +0.520 C 
ATOM     12  O   LIG    1       15.263  58.715  25.221  0.00  0.00    -0.530 OA
ATOM     13  C   LIG    1       13.088  62.883  26.222  0.00  0.00    +0.250 C 
ATOM     14  O   LIG    1       12.531  65.335  27.251  0.00  0.00    -0.540 OA
ENDROOT
BRANCH   1  15
ATOM     15  C   LIG    1       10.180  65.137  27.327  0.00  0.00    +0.040 C 
BRANCH  15  17
ATOM     16  C   LIG    1        9.903  67.233  28.657  0.00  0.00    +0.010 C 
ATOM     17  C   LIG    1       10.169  66.666  27.262  0.00  0.00    +0.030 C 
ENDBRANCH  15  17
ENDBRANCH   1  15
BRANCH  11  18
ATOM     18  C   LIG    1       15.240  59.667  23.062  0.00  0.00    +0.100 C 
BRANCH  18  19
ATOM     19  C   LIG    1       16.690  59.845  22.694  0.00  0.00    -0.070 A 
ATOM     20  C   LIG    1       17.550  58.762  22.726  0.00  0.00    +0.010 A 
ATOM     21  C   LIG    1       18.880  58.925  22.388  0.00  0.00    +0.000 A 
ATOM     22  C   LIG    1       19.351  60.170  22.017  0.00  0.00    +0.000 A 
ATOM     23  C   LIG    1       18.493  61.252  21.983  0.00  0.00    +0.000 A 
ATOM     24  C   LIG    1       17.161  61.089  22.317  0.00  0.00    +0.010 A 
ENDBRANCH  18  19
ENDBRANCH  11  18
TORSDOF 4
ENDMDL
MODEL 
REMARK VINA RESULT:    -9.188      0.000      0.000
REMARK INTER + INTRA:         -11.364
REMARK INTER:                 -10.761
REMARK INTRA:                  -0.603
REMARK UNBOUND:                -0.565
REMARK  Name = ZINC000884291005
REMARK                            x       y       z     vdW  Elec       q    Type
REMARK                         _______ _______ _______ _____ _____    ______ ____
ROOT
ATOM      1  C   LIG    1       13.879  61.128  25.799  0.00  0.00    +0.520 C 
ATOM      2  N   LIG    1       14.237  60.589  24.617  0.00  0.00    -0.620 N 
ATOM      3  C   LIG    1       14.169  61.381  23.382  0.00  0.00    +0.270 C 
ATOM      4  C   LIG    1       15.534  61.331  22.688  0.00  0.00    +0.030 C 
ATOM      5  C   LIG    1       15.944  59.873  22.477  0.00  0.00    +0.000 C 
ATOM      6  C   LIG    1       16.065  59.174  23.834  0.00  0.00    +0.020 C 
ATOM      7  C   LIG    1       14.713  59.200  24.541  0.00  0.00    +0.280 C 
ATOM      8  O   LIG    1       14.038  60.501  26.825  0.00  0.00    -0.530 OA
ENDROOT
BRANCH   1  14
ATOM      9  C   LIG    1       10.315  66.349  27.295  0.00  0.00    +0.130 A 
ATOM     10  C   LIG    1        9.494  65.231  27.291  0.00  0.00    -0.070 A 
ATOM     11  C   LIG    1       10.031  63.988  27.033  0.00  0.00    +0.050 A 
ATOM     12  C   LIG    1       11.389  63.844  26.777  0.00  0.00    -0.110 A 
ATOM     13  C   LIG    1       11.910  62.454  26.519  0.00  0.00    +0.110 C 
ATOM     14  C   LIG    1       13.280  62.509  25.846  0.00  0.00    -0.010 C 
ATOM     15  C   LIG    1       14.184  63.437  26.666  0.00  0.00    +0.050 C 
ATOM     16  C   LIG    1       13.685  64.871  26.496  0.00  0.00    +0.080 C 
ATOM     17  C   LIG    1       12.206  64.954  26.774  0.00  0.00    -0.040 A 
ATOM     18  C   LIG    1       11.667  66.206  27.030  0.00  0.00    -0.020 A 
BRANCH   9  20
ATOM     19  C   LIG    1        9.619  67.934  28.924  0.00  0.00    +0.250 C 
ATOM     20  O   LIG    1        9.796  67.578  27.551  0.00  0.00    -0.320 OA
ENDBRANCH   9  20
ENDBRANCH   1  14
BRANCH   5  21
ATOM     21  C   LIG    1       17.290  59.820  21.754  0.00  0.00    +0.010 C 
ATOM     22  C   LIG    1       18.244  58.835  22.467  0.00  0.00    +0.080 C 
ATOM     23  C   LIG    1       19.613  59.557  22.384  0.00  0.00    +0.280 C 
ATOM     24  N   LIG    1       19.255  60.985  22.574  0.00  0.00    -0.520 N 
ATOM     25  H   LIG    1       19.981  61.578  22.198  0.00  0.00    +0.430 HD
ATOM     26  H   LIG    1       19.118  61.182  23.554  0.00  0.00    +0.430 HD
ATOM     27  C   LIG    1       17.992  61.188  21.829  0.00  0.00    +0.260 C 
ENDBRANCH   5  21
TORSDOF 3
ENDMDL
MODEL 
REMARK VINA RESULT:    -6.909      0.000      0.000
REMARK INTER + INTRA:         -11.347
REMARK INTER:                 -10.605
REMARK INTRA:                  -0.741
REMARK UNBOUND:                -1.409
REMARK  Name = ZINC000262122664
REMARK                            x       y       z     vdW  Elec       q    Type
REMARK                         _______ _______ _______ _____ _____    ______ ____
ROOT
ATOM      1  C   LIG    1       15.738  60.601  22.379  0.00  0.00    +0.500 C 
ATOM      2  N   LIG    1       14.761  60.913  23.253  0.00  0.00    -0.720 N 
ATOM      3  H   LIG    1       14.356  60.219  23.795  0.00  0.00    +0.390 HD
ATOM      4  O   LIG    1       16.245  61.470  21.700  0.00  0.00    -0.470 OA
ENDROOT
BRANCH   1   5
ATOM      5  C   LIG    1       16.203  59.174  22.246  0.00  0.00    +0.050 C 
ATOM      6  C   LIG    1       16.418  58.575  23.637  0.00  0.00    +0.130 C 
BRANCH   5   7
ATOM      7  N   LIG    1       15.186  58.393  21.529  0.00  0.00    -0.640 N 
ATOM      8  H   LIG    1       15.594  57.531  21.198  0.00  0.00    +0.440 HD
ATOM      9  H   LIG    1       14.844  58.926  20.743  0.00  0.00    +0.430 HD
ATOM     10  H   LIG    1       14.421  58.185  22.153  0.00  0.00    +0.440 HD
ENDBRANCH   5   7
BRANCH   5  11
ATOM     11  C   LIG    1       17.519  59.136  21.466  0.00  0.00    +0.090 C 
BRANCH  11  13
ATOM     12  C   LIG    1       19.624  60.143  22.358  0.00  0.00    +0.040 C 
ATOM     13  C   LIG    1       18.683  58.940  22.440  0.00  0.00    -0.000 C 
ENDBRANCH  11  13
ENDBRANCH   5  11
ENDBRANCH   1   5
BRANCH   2  14
ATOM     14  C   LIG    1       14.310  62.301  23.382  0.00  0.00    +0.240 C 
ATOM     15  C   LIG    1       12.987  62.479  22.634  0.00  0.00    +0.030 C 
BRANCH  14  16
ATOM     16  C   LIG    1       14.109  62.636  24.861  0.00  0.00    +0.030 C 
BRANCH  16  17
ATOM     17  C   LIG    1       12.702  62.221  25.293  0.00  0.00    +0.070 C 
BRANCH  17  18
ATOM     18  C   LIG    1       12.047  63.358  26.033  0.00  0.00    -0.080 A 
ATOM     19  C   LIG    1       10.680  63.353  26.236  0.00  0.00    +0.020 A 
ATOM     20  C   LIG    1       10.078  64.396  26.916  0.00  0.00    +0.060 A 
ATOM     21  C   LIG    1       10.845  65.444  27.393  0.00  0.00    -0.090 A 
ATOM     22  C   LIG    1       12.213  65.448  27.190  0.00  0.00    +0.040 A 
ATOM     23 BR   LIG    1       10.022  66.870  28.323  0.00  0.00    -0.040 Br
ATOM     24  C   LIG    1       12.814  64.403  26.515  0.00  0.00    +0.020 A 
ENDBRANCH  17  18
ENDBRANCH  16  17
ENDBRANCH  14  16
ENDBRANCH   2  14
TORSDOF 8
ENDMDL
MODEL 
REMARK VINA RESULT:    -7.890      0.000      0.000
REMARK INTER + INTRA:          -9.998
REMARK INTER:                  -9.353
REMARK INTRA:                  -0.645
REMARK UNBOUND:                -0.725
REMARK  Name = ZINC000414751175
REMARK                            x       y       z     vdW  Elec       q    Type
REMARK                         _______ _______ _______ _____ _____    ______ ____
ROOT
ATOM      1  O   LIG    1       13.582  61.876  23.416  0.00  0.00    -0.510 OA
ATOM      2  C   LIG    1       14.080  61.302  24.361  0.00  0.00    +0.530 C 
ATOM      3  N   LIG    1       14.959  60.303  24.157  0.00  0.00    -0.710 N 
ATOM      4  H   LIG    1       15.357  59.844  24.913  0.00  0.00    +0.400 HD
ENDROOT
BRANCH   3   5
ATOM      5  C   LIG    1       15.315  59.908  22.791  0.00  0.00    +0.280 C 
ATOM      6  C   LIG    1       15.133  58.386  22.610  0.00  0.00    +0.050 C 
ATOM      7  C   LIG    1       16.539  57.842  22.941  0.00  0.00    +0.070 C 
ATOM      8  C   LIG    1       17.488  58.977  22.622  0.00  0.00    -0.090 A 
ATOM      9  C   LIG    1       18.859  58.973  22.423  0.00  0.00    +0.010 A 
ATOM     10  C   LIG    1       19.524  60.149  22.139  0.00  0.00    +0.020 A 
ATOM     11  C   LIG    1       18.820  61.336  22.054  0.00  0.00    +0.000 A 
ATOM     12  C   LIG    1       17.453  61.342  22.251  0.00  0.00    +0.040 A 
ATOM     13  C   LIG    1       16.784  60.167  22.535  0.00  0.00    -0.120 A 
ENDBRANCH   3   5
BRANCH   2  14
ATOM     14  C   LIG    1       13.719  61.713  25.766  0.00  0.00    -0.130 C 
ATOM     15  C   LIG    1       12.319  61.177  26.130  0.00  0.00    +0.060 C 
ATOM     16  C   LIG    1       12.603  59.852  26.881  0.00  0.00    +0.030 C 
ATOM     17  C   LIG    1       13.868  60.193  27.707  0.00  0.00    +0.030 C 
ATOM     18  C   LIG    1       14.703  61.088  26.768  0.00  0.00    +0.080 C 
BRANCH  14  19
ATOM     19  C   LIG    1       13.743  63.238  25.887  0.00  0.00    +0.470 C 
ATOM     20  F   LIG    1       14.165  63.597  27.172  0.00  0.00    -0.170 F 
ATOM     21  F   LIG    1       12.459  63.745  25.658  0.00  0.00    -0.170 F 
ATOM     22  F   LIG    1       14.628  63.768  24.942  0.00  0.00    -0.180 F 
ENDBRANCH  14  19
ENDBRANCH   2  14
TORSDOF 3
ENDMDL
MODEL 
REMARK VINA RESULT:    -7.454      0.000      0.000
REMARK INTER + INTRA:         -11.045
REMARK INTER:                 -10.112
REMARK INTRA:                  -0.933
REMARK UNBOUND:                -0.976
REMARK  Name = ZINC000185438753
REMARK                            x       y       z     vdW  Elec       q    Type
REMARK                         _______ _______ _______ _____ _____    ______ ____
ROOT
ATOM      1  C   LIG    1       14.407  60.698  25.148  0.00  0.00    +0.310 C 
ENDROOT
BRANCH   1   3
ATOM      2  C   LIG    1       16.294  59.492  24.191  0.00  0.00    +0.520 C 
ATOM      3  N   LIG    1       14.988  59.818  24.131  0.00  0.00    -0.730 N 
ATOM      4  H   LIG    1       14.433  59.471  23.416  0.00  0.00    +0.400 HD
ATOM      5  O   LIG    1       16.988  59.927  25.086  0.00  0.00    -0.540 OA
BRANCH   2   6
ATOM      6  C   LIG    1       16.893  58.586  23.146  0.00  0.00    +0.000 C 
ATOM      7  C   LIG    1       15.901  57.468  22.813  0.00  0.00    +0.040 C 
BRANCH   6   8
ATOM      8  C   LIG    1       17.195  59.393  21.882  0.00  0.00    +0.090 C 
BRANCH   8  10
ATOM      9  C   LIG    1       19.590  59.518  22.338  0.00  0.00    +0.010 C 
ATOM     10  C   LIG    1       18.479  60.159  22.070  0.00  0.00    -0.120 C 
ATOM     11  C   LIG    1       18.487  61.661  21.950  0.00  0.00    +0.070 C 
ENDBRANCH   8  10
ENDBRANCH   6   8
ENDBRANCH   2   6
ENDBRANCH   1   3
BRANCH   1  12
ATOM     12  C   LIG    1       13.905  61.983  24.484  0.00  0.00    -0.110 C 
ATOM     13  C   LIG    1       14.836  62.671  23.484  0.00  0.00    +0.050 C 
ATOM     14  C   LIG    1       13.593  61.929  22.987  0.00  0.00    +0.040 C 
BRANCH  12  15
ATOM     15  C   LIG    1       13.035  62.862  25.345  0.00  0.00    -0.040 A 
ATOM     16  C   LIG    1       11.676  62.623  25.427  0.00  0.00    +0.030 A 
ATOM     17  C   LIG    1       10.879  63.429  26.216  0.00  0.00    +0.020 A 
ATOM     18  C   LIG    1       11.441  64.477  26.924  0.00  0.00    -0.040 A 
ATOM     19  C   LIG    1       12.800  64.716  26.842  0.00  0.00    +0.030 A 
ATOM     20 CL   LIG    1       10.438  65.489  27.917  0.00  0.00    -0.070 Cl
ATOM     21  C   LIG    1       13.598  63.905  26.057  0.00  0.00    +0.030 A 
ENDBRANCH  12  15
ENDBRANCH   1  12
TORSDOF 6
ENDMDL
MODEL 
REMARK VINA RESULT:    -7.733      0.000      0.000
REMARK INTER + INTRA:          -9.143
REMARK INTER:                  -8.889
REMARK INTRA:                  -0.254
REMARK UNBOUND:                -0.053
REMARK  Name = ZINC000068525931
REMARK                            x       y       z     vdW  Elec       q    Type
REMARK                         _______ _______ _______ _____ _____    ______ ____
ROOT
ATOM      1  N   LIG    1       13.872  61.971  27.021  0.00  0.00    -0.690 N 
ATOM      2  H   LIG    1       14.515  61.836  27.734  0.00  0.00    +0.400 HD
ATOM      3  C   LIG    1       13.962  61.250  25.886  0.00  0.00    +0.710 C 
ATOM      4  N   LIG    1       14.881  60.270  25.781  0.00  0.00    -0.610 N 
ATOM      5  C   LIG    1       15.781  59.987  26.902  0.00  0.00    +0.290 C 
ATOM      6  O   LIG    1       13.216  61.484  24.955  0.00  0.00    -0.580 OA
ENDROOT
BRANCH   1  14
ATOM      7  C   LIG    1       14.356  64.633  26.139  0.00  0.00    +0.090 C 
ATOM      8  C   LIG    1       13.044  64.225  26.757  0.00  0.00    -0.060 A 
ATOM      9  C   LIG    1       12.032  65.153  26.908  0.00  0.00    +0.000 A 
ATOM     10  C   LIG    1       10.827  64.779  27.475  0.00  0.00    +0.010 A 
ATOM     11  C   LIG    1       10.632  63.475  27.893  0.00  0.00    +0.010 A 
ATOM     12  C   LIG    1       11.640  62.543  27.747  0.00  0.00    -0.080 A 
ATOM     13  C   LIG    1       11.427  61.123  28.203  0.00  0.00    +0.090 C 
ATOM     14  C   LIG    1       12.848  62.913  27.171  0.00  0.00    +0.150 A 
ENDBRANCH   1  14
BRANCH   4  15
ATOM     15  C   LIG    1       14.980  59.487  24.547  0.00  0.00    +0.330 C 
ATOM     16  C   LIG    1       15.369  58.046  24.887  0.00  0.00    +0.040 C 
BRANCH  15  17
ATOM     17  C   LIG    1       16.029  60.092  23.651  0.00  0.00    +0.120 A 
ATOM     18  C   LIG    1       17.363  59.800  23.866  0.00  0.00    -0.020 A 
ATOM     19  C   LIG    1       18.321  60.362  23.036  0.00  0.00    +0.070 A 
ATOM     20  C   LIG    1       17.899  61.200  22.015  0.00  0.00    -0.040 A 
ATOM     21  C   LIG    1       16.548  61.446  21.861  0.00  0.00    +0.260 A 
ATOM     22  N   LIG    1       15.664  60.890  22.666  0.00  0.00    -0.470 NA
ENDBRANCH  15  17
ENDBRANCH   4  15
TORSDOF 3
ENDMDL
MODEL 
REMARK VINA RESULT:    -6.165      0.000      0.000
REMARK INTER + INTRA:         -10.387
REMARK INTER:                  -9.388
REMARK INTRA:                  -0.999
REMARK UNBOUND:                -1.158
REMARK  Name = ZINC000297271772
REMARK                            x       y       z     vdW  Elec       q    Type
REMARK                         _______ _______ _______ _____ _____    ______ ____
ROOT
ATOM      1  C   LIG    1       15.504  60.085  24.910  0.00  0.00    +0.520 C 
ATOM      2  N   LIG    1       14.686  60.353  25.945  0.00  0.00    -0.600 N 
ATOM      3  C   LIG    1       15.210  60.350  27.314  0.00  0.00    +0.280 C 
ATOM      4  O   LIG    1       16.651  59.748  25.114  0.00  0.00    -0.530 OA
ENDROOT
BRANCH   1   5
ATOM      5  C   LIG    1       14.995  60.204  23.496  0.00  0.00    -0.020 C 
BRANCH   5   6
ATOM      6  C   LIG    1       15.351  61.585  22.940  0.00  0.00    +0.030 C 
ATOM      7  C   LIG    1       14.083  62.271  22.428  0.00  0.00    +0.020 C 
ENDBRANCH   5   6
BRANCH   5   8
ATOM      8  C   LIG    1       15.640  59.122  22.628  0.00  0.00    +0.050 C 
BRANCH   8   9
ATOM      9  C   LIG    1       16.722  59.752  21.748  0.00  0.00    +0.010 C 
BRANCH   9  11
ATOM     10  C   LIG    1       19.067  60.210  22.478  0.00  0.00    +0.000 C 
ATOM     11  C   LIG    1       18.076  59.118  22.071  0.00  0.00    -0.010 C 
ENDBRANCH   9  11
ENDBRANCH   8   9
ENDBRANCH   5   8
ENDBRANCH   1   5
BRANCH   2  12
ATOM     12  C   LIG    1       13.272  60.650  25.704  0.00  0.00    +0.290 C 
BRANCH  12  13
ATOM     13  C   LIG    1       12.994  62.090  26.047  0.00  0.00    -0.100 A 
ATOM     14  C   LIG    1       11.714  62.486  26.385  0.00  0.00    +0.050 A 
ATOM     15  C   LIG    1       11.460  63.809  26.699  0.00  0.00    -0.010 A 
ATOM     16  C   LIG    1       12.486  64.734  26.676  0.00  0.00    +0.000 A 
ATOM     17  C   LIG    1       13.767  64.338  26.338  0.00  0.00    +0.000 A 
ATOM     18  C   LIG    1       14.022  63.015  26.028  0.00  0.00    +0.010 A 
ENDBRANCH  12  13
BRANCH  12  19
ATOM     19  C   LIG    1       12.404  59.742  26.579  0.00  0.00    +0.190 C 
BRANCH  19  20
ATOM     20  O   LIG    1       12.580  58.382  26.176  0.00  0.00    -0.560 OA
ATOM     21  H   LIG    1       13.504  58.102  26.126  0.00  0.00    +0.380 HD
ENDBRANCH  19  20
ENDBRANCH  12  19
ENDBRANCH   2  12
TORSDOF 9
ENDMDL
MODEL 
REMARK VINA RESULT:    -6.503      0.000      0.000
REMARK INTER + INTRA:          -9.629
REMARK INTER:                  -9.052
REMARK INTRA:                  -0.577
REMARK UNBOUND:                -0.845
REMARK  Name = ZINC000162420501
REMARK                            x       y       z     vdW  Elec       q    Type
REMARK                         _______ _______ _______ _____ _____    ______ ____
ROOT
ATOM      1  N   LIG    1       13.347  62.308  25.768  0.00  0.00    -0.670 NA
ATOM      2  H   LIG    1       13.390  62.621  24.809  0.00  0.00    +0.350 HD
ENDROOT
BRANCH   1   3
ATOM      3  C   LIG    1       14.332  61.249  26.021  0.00  0.00    +0.220 C 
ATOM      4  C   LIG    1       13.606  59.961  26.413  0.00  0.00    +0.040 C 
BRANCH   3   8
ATOM      5  C   LIG    1       16.753  60.357  22.963  0.00  0.00    -0.180 A 
ATOM      6  C   LIG    1       15.753  61.146  22.568  0.00  0.00    +0.000 A 
ATOM      7  C   LIG    1       14.864  61.505  23.567  0.00  0.00    +0.010 A 
ATOM      8  C   LIG    1       15.143  61.008  24.772  0.00  0.00    -0.190 A 
ATOM      9  S   LIG    1       16.595  60.020  24.682  0.00  0.00    +0.140 S 
BRANCH   5  11
ATOM     10  C   LIG    1       19.195  60.387  22.530  0.00  0.00    +0.030 C 
ATOM     11  C   LIG    1       17.846  59.828  22.071  0.00  0.00    +0.100 C 
ENDBRANCH   5  11
ENDBRANCH   3   8
ENDBRANCH   1   3
BRANCH   1  12
ATOM     12  C   LIG    1       13.532  63.432  26.695  0.00  0.00    +0.260 C 
ATOM     13  C   LIG    1       14.341  64.533  26.008  0.00  0.00    +0.010 C 
BRANCH  12  14
ATOM     14  C   LIG    1       12.185  63.976  27.099  0.00  0.00    +0.090 A 
ATOM     15  C   LIG    1       11.210  63.203  27.586  0.00  0.00    -0.100 A 
ATOM     16  S   LIG    1        9.821  64.233  27.926  0.00  0.00    +0.110 S 
ATOM     17  C   LIG    1       10.690  65.600  27.379  0.00  0.00    +0.050 A 
ATOM     18  N   LIG    1       11.875  65.254  27.007  0.00  0.00    -0.450 NA
BRANCH  17  19
ATOM     19  C   LIG    1       10.151  67.007  27.344  0.00  0.00    +0.120 C 
ATOM     20  C   LIG    1        9.848  67.472  28.770  0.00  0.00    +0.040 C 
ENDBRANCH  17  19
ENDBRANCH  12  14
ENDBRANCH   1  12
TORSDOF 6
ENDMDL
MODEL 
REMARK VINA RESULT:    -7.696      0.000      0.000
REMARK INTER + INTRA:          -8.918
REMARK INTER:                  -8.557
REMARK INTRA:                  -0.361
REMARK UNBOUND:                -0.097
REMARK  Name = ZINC001243215718
REMARK                            x       y       z     vdW  Elec       q    Type
REMARK                         _______ _______ _______ _____ _____    ______ ____
ROOT
ATOM      1  C   LIG    1       12.474  62.590  25.811  0.00  0.00    -0.050 A 
ATOM      2  C   LIG    1       11.268  61.902  25.999  0.00  0.00    +0.220 A 
ATOM      3  C   LIG    1       10.345  62.427  26.880  0.00  0.00    -0.020 A 
ATOM      4  C   LIG    1       10.639  63.612  27.548  0.00  0.00    +0.440 A 
ATOM      5  N   LIG    1       11.790  64.238  27.348  0.00  0.00    -0.500 N 
ATOM      6  H   LIG    1       11.968  65.062  27.827  0.00  0.00    +0.440 HD
ATOM      7  C   LIG    1       12.699  63.768  26.520  0.00  0.00    +0.170 A 
ATOM      8  C   LIG    1       13.992  64.519  26.328  0.00  0.00    +0.180 C 
ENDROOT
BRANCH   1  12
ATOM      9  C   LIG    1       16.665  60.016  25.036  0.00  0.00    +0.100 C 
ATOM     10  C   LIG    1       15.513  60.831  24.505  0.00  0.00    -0.060 A 
ATOM     11  C   LIG    1       14.567  61.313  25.363  0.00  0.00    +0.020 A 
ATOM     12  C   LIG    1       13.499  62.068  24.877  0.00  0.00    -0.110 A 
ATOM     13  C   LIG    1       13.394  62.333  23.510  0.00  0.00    +0.020 A 
ATOM     14  C   LIG    1       14.346  61.848  22.643  0.00  0.00    +0.040 A 
ATOM     15  C   LIG    1       15.418  61.096  23.135  0.00  0.00    -0.080 A 
BRANCH  15  16
ATOM     16  C   LIG    1       16.439  60.574  22.210  0.00  0.00    +0.520 C 
ATOM     17  O   LIG    1       16.296  59.474  21.697  0.00  0.00    -0.680 OA
ATOM     18  O   LIG    1       17.433  61.243  21.956  0.00  0.00    -0.670 OA
ENDBRANCH  15  16
ENDBRANCH   1  12
BRANCH   4  19
ATOM     19  N   LIG    1        9.715  64.146  28.436  0.00  0.00    -0.830 N 
ATOM     20  H   LIG    1        9.800  63.972  29.388  0.00  0.00    +0.420 HD
ATOM     21  H   LIG    1        8.984  64.691  28.106  0.00  0.00    +0.440 HD
ENDBRANCH   4  19
TORSDOF 3
ENDMDL
MODEL 
REMARK VINA RESULT:    -6.902      0.000      0.000
REMARK INTER + INTRA:         -10.529
REMARK INTER:                 -10.398
REMARK INTRA:                  -0.130
REMARK UNBOUND:                -0.802
REMARK  Name = ZINC000951787833
REMARK                            x       y       z     vdW  Elec       q    Type
REMARK                         _______ _______ _______ _____ _____    ______ ____
ROOT
ATOM      1  N   LIG    1       14.514  60.758  25.106  0.00  0.00    -0.610 N 
ATOM      2  C   LIG    1       14.838  59.589  24.521  0.00  0.00    +0.560 C 
ATOM      3  O   LIG    1       14.688  58.547  25.124  0.00  0.00    -0.510 OA
ENDROOT
BRANCH   1   4
ATOM      4  C   LIG    1       13.982  60.771  26.472  0.00  0.00    +0.270 C 
ATOM      5  C   LIG    1       13.759  62.186  27.035  0.00  0.00    +0.310 C 
ATOM      6  N   LIG    1       12.392  62.086  26.478  0.00  0.00    -0.420 N 
ATOM      7  H   LIG    1       12.326  62.436  25.534  0.00  0.00    +0.430 HD
ATOM      8  C   LIG    1       12.453  60.608  26.542  0.00  0.00    +0.290 C 
BRANCH   6   9
ATOM      9  C   LIG    1       11.367  62.654  27.364  0.00  0.00    +0.260 C 
BRANCH   9  10
ATOM     10  C   LIG    1       10.779  63.911  26.723  0.00  0.00    -0.030 C 
ATOM     11  C   LIG    1        9.607  64.515  27.514  0.00  0.00    +0.030 C 
ATOM     12  C   LIG    1       10.199  65.896  27.185  0.00  0.00    -0.010 C 
ATOM     13  C   LIG    1       10.129  66.886  28.349  0.00  0.00    +0.030 C 
ATOM     14  C   LIG    1       11.560  65.195  27.053  0.00  0.00    +0.050 C 
ENDBRANCH   9  10
ENDBRANCH   6   9
ENDBRANCH   1   4
BRANCH   2  15
ATOM     15  C   LIG    1       15.385  59.575  23.117  0.00  0.00    -0.070 C 
ATOM     16  C   LIG    1       15.230  58.284  22.311  0.00  0.00    +0.070 C 
ATOM     17  C   LIG    1       16.606  58.694  22.843  0.00  0.00    +0.010 C 
BRANCH  17  18
ATOM     18  C   LIG    1       17.632  59.203  21.829  0.00  0.00    +0.050 C 
BRANCH  18  19
ATOM     19  C   LIG    1       18.589  60.177  22.519  0.00  0.00    -0.020 C 
ATOM     20  C   LIG    1       18.386  61.583  21.949  0.00  0.00    +0.020 C 
ATOM     21  C   LIG    1       20.034  59.732  22.276  0.00  0.00    +0.030 C 
ENDBRANCH  18  19
ENDBRANCH  17  18
ENDBRANCH   2  15
BRANCH   1  23
ATOM     22  C   LIG    1       13.578  62.173  23.346  0.00  0.00    +0.030 C 
ATOM     23  C   LIG    1       14.695  62.017  24.379  0.00  0.00    +0.260 C 
ENDBRANCH   1  23
TORSDOF 7
ENDMDL
MODEL 
REMARK VINA RESULT:    -6.552      0.000      0.000
REMARK INTER + INTRA:          -8.954
REMARK INTER:                  -8.558
REMARK INTRA:                  -0.396
REMARK UNBOUND:                -0.487
REMARK  Name = ZINC000529394267
REMARK                            x       y       z     vdW  Elec       q    Type
REMARK                         _______ _______ _______ _____ _____    ______ ____
ROOT
ATOM      1  N   LIG    1       14.345  61.687  24.678  0.00  0.00    -0.600 N 
ATOM      2  C   LIG    1       15.399  60.851  24.596  0.00  0.00    +0.550 C 
ATOM      3  O   LIG    1       15.928  60.440  25.608  0.00  0.00    -0.540 OA
ATOM      4  C   LIG    1       13.707  62.182  23.455  0.00  0.00    +0.290 C 
ENDROOT
BRANCH   1   7
ATOM      5  C   LIG    1       12.494  63.464  26.895  0.00  0.00    +0.160 C 
ATOM      6  C   LIG    1       12.304  62.190  26.055  0.00  0.00    -0.000 C 
ATOM      7  C   LIG    1       13.838  62.100  25.988  0.00  0.00    +0.240 C 
ATOM      8  C   LIG    1       13.858  63.622  26.204  0.00  0.00    +0.030 C 
BRANCH   5   9
ATOM      9  O   LIG    1       11.567  64.503  26.578  0.00  0.00    -0.370 OA
BRANCH   9  11
ATOM     10  C   LIG    1       10.207  66.352  27.334  0.00  0.00    +0.040 C 
ATOM     11  C   LIG    1       10.866  65.024  27.710  0.00  0.00    +0.160 C 
ENDBRANCH   9  11
ENDBRANCH   5   9
ENDBRANCH   1   7
BRANCH   2  12
ATOM     12  C   LIG    1       15.921  60.425  23.248  0.00  0.00    -0.070 C 
ATOM     13  C   LIG    1       15.780  58.949  22.869  0.00  0.00    +0.000 C 
ATOM     14  C   LIG    1       15.119  58.018  23.888  0.00  0.00    +0.060 C 
ATOM     15  C   LIG    1       17.155  59.522  23.221  0.00  0.00    +0.040 C 
BRANCH  15  16
ATOM     16  C   LIG    1       18.152  59.720  22.077  0.00  0.00    -0.020 C 
ATOM     17  C   LIG    1       18.962  61.018  22.062  0.00  0.00    +0.020 C 
ATOM     18  C   LIG    1       19.641  59.696  22.426  0.00  0.00    +0.030 C 
ENDBRANCH  15  16
ENDBRANCH   2  12
TORSDOF 5
ENDMDL
MODEL 
REMARK VINA RESULT:    -6.878      0.000      0.000
REMARK INTER + INTRA:         -10.869
REMARK INTER:                 -10.065
REMARK INTRA:                  -0.804
REMARK UNBOUND:                -0.774
REMARK  Name = ZINC000182113837
REMARK                            x       y       z     vdW  Elec       q    Type
REMARK                         _______ _______ _______ _____ _____    ______ ____
ROOT
ATOM      1  O   LIG    1       12.813  62.518  27.674  0.00  0.00    -0.350 OA
ENDROOT
BRANCH   1   2
ATOM      2  C   LIG    1       12.773  63.813  27.323  0.00  0.00    +0.470 C 
ATOM      3  O   LIG    1       13.739  64.517  27.500  0.00  0.00    -0.510 OA
BRANCH   2   4
ATOM      4  C   LIG    1       11.524  64.389  26.709  0.00  0.00    +0.030 C 
ATOM      5  C   LIG    1       10.732  63.275  26.020  0.00  0.00    +0.060 C 
BRANCH   4   6
ATOM      6  C   LIG    1       10.663  65.024  27.803  0.00  0.00    +0.050 C 
BRANCH   6   7
ATOM      7  C   LIG    1       10.424  66.498  27.473  0.00  0.00    +0.030 C 
BRANCH   7   8
ATOM      8  C   LIG    1        9.866  67.214  28.706  0.00  0.00    +0.160 C 
BRANCH   8  10
ATOM      9  C   LIG    1        9.153  69.365  29.485  0.00  0.00    +0.200 C 
ATOM     10  O   LIG    1        9.802  68.618  28.453  0.00  0.00    -0.390 OA
ENDBRANCH   8  10
ENDBRANCH   7   8
ENDBRANCH   6   7
ENDBRANCH   4   6
ENDBRANCH   2   4
ENDBRANCH   1   2
BRANCH   1  11
ATOM     11  C   LIG    1       13.949  61.743  27.209  0.00  0.00    +0.230 C 
BRANCH  11  12
ATOM     12  C   LIG    1       13.493  60.777  26.112  0.00  0.00    +0.040 C 
ATOM     13  C   LIG    1       14.132  59.388  26.323  0.00  0.00    +0.050 C 
ATOM     14  C   LIG    1       15.410  59.478  25.462  0.00  0.00    +0.070 C 
ATOM     15  C   LIG    1       15.093  60.495  24.387  0.00  0.00    -0.100 A 
ATOM     16  C   LIG    1       15.719  60.748  23.179  0.00  0.00    +0.010 A 
ATOM     17  C   LIG    1       15.246  61.744  22.346  0.00  0.00    +0.000 A 
ATOM     18  C   LIG    1       14.144  62.491  22.719  0.00  0.00    +0.000 A 
ATOM     19  C   LIG    1       13.518  62.239  23.925  0.00  0.00    +0.030 A 
ATOM     20  C   LIG    1       13.989  61.243  24.762  0.00  0.00    -0.090 A 
ENDBRANCH  11  12
ENDBRANCH   1  11
TORSDOF 8
ENDMDL
MODEL 
REMARK VINA RESULT:    -6.879      0.000      0.000
REMARK INTER + INTRA:         -11.453
REMARK INTER:                 -10.829
REMARK INTRA:                  -0.624
REMARK UNBOUND:                -0.955
REMARK  Name = ZINC001209431757
REMARK                            x       y       z     vdW  Elec       q    Type
REMARK                         _______ _______ _______ _____ _____    ______ ____
ROOT
ATOM      1  C   LIG    1       11.695  64.391  26.698  0.00  0.00    +0.010 C 
ATOM      2  C   LIG    1       13.138  64.229  27.184  0.00  0.00    +0.020 C 
ATOM      3  C   LIG    1       14.021  63.782  26.018  0.00  0.00    +0.040 C 
ATOM      4  C   LIG    1       13.513  62.444  25.477  0.00  0.00    -0.020 C 
ATOM      5  C   LIG    1       12.071  62.606  24.990  0.00  0.00    +0.030 C 
ATOM      6  C   LIG    1       11.187  63.054  26.156  0.00  0.00    +0.030 C 
ENDROOT
BRANCH   1   7
ATOM      7  C   LIG    1       10.811  64.839  27.864  0.00  0.00    +0.110 C 
BRANCH   7   8
ATOM      8  C   LIG    1       10.672  66.339  27.841  0.00  0.00    +0.460 C 
ATOM      9  O   LIG    1       11.370  67.000  27.108  0.00  0.00    -0.510 OA
BRANCH   8  10
ATOM     10  O   LIG    1        9.770  66.942  28.633  0.00  0.00    -0.360 OA
BRANCH  10  12
ATOM     11  C   LIG    1        9.110  69.130  29.471  0.00  0.00    +0.060 C 
ATOM     12  C   LIG    1       10.227  68.088  29.398  0.00  0.00    +0.200 C 
ENDBRANCH  10  12
ENDBRANCH   8  10
ENDBRANCH   7   8
ENDBRANCH   1   7
BRANCH   4  13
ATOM     13  C   LIG    1       14.396  61.996  24.311  0.00  0.00    +0.250 C 
BRANCH  13  14
ATOM     14  N   LIG    1       14.741  60.579  24.475  0.00  0.00    -0.380 N 
ATOM     15  H   LIG    1       14.048  60.007  24.016  0.00  0.00    +0.420 HD
BRANCH  14  16
ATOM     16  C   LIG    1       14.780  60.246  25.906  0.00  0.00    +0.250 C 
ATOM     17  C   LIG    1       16.144  59.642  26.251  0.00  0.00    +0.080 C 
ENDBRANCH  14  16
BRANCH  14  18
ATOM     18  C   LIG    1       16.059  60.322  23.878  0.00  0.00    +0.290 C 
BRANCH  18  19
ATOM     19  C   LIG    1       15.888  59.941  22.406  0.00  0.00    -0.090 C 
ATOM     20  C   LIG    1       15.952  58.454  22.051  0.00  0.00    +0.060 C 
ATOM     21  C   LIG    1       17.110  59.383  21.675  0.00  0.00    +0.000 C 
ATOM     22  C   LIG    1       18.410  59.247  22.470  0.00  0.00    +0.060 C 
ENDBRANCH  18  19
ENDBRANCH  14  18
ENDBRANCH  13  14
ENDBRANCH   4  13
TORSDOF 9
ENDMDL
MODEL 
REMARK VINA RESULT:    -7.032      0.000      0.000
REMARK INTER + INTRA:         -10.404
REMARK INTER:                  -9.685
REMARK INTRA:                  -0.719
REMARK UNBOUND:                -0.700
REMARK  Name = ZINC000261899849
REMARK                            x       y       z     vdW  Elec       q    Type
REMARK                         _______ _______ _______ _____ _____    ______ ____
ROOT
ATOM      1  C   LIG    1       14.089  61.998  24.414  0.00  0.00    +0.520 C 
ATOM      2  N   LIG    1       12.906  62.598  24.652  0.00  0.00    -0.750 N 
ATOM      3  H   LIG    1       12.398  62.976  23.918  0.00  0.00    +0.390 HD
ATOM      4  O   LIG    1       14.725  61.526  25.333  0.00  0.00    -0.480 OA
ENDROOT
BRANCH   1   6
ATOM      5  C   LIG    1       13.536  62.356  22.023  0.00  0.00    +0.070 C 
ATOM      6  C   LIG    1       14.621  61.913  23.007  0.00  0.00    +0.170 C 
BRANCH   6   7
ATOM      7  O   LIG    1       15.000  60.565  22.721  0.00  0.00    -0.280 OA
BRANCH   7   8
ATOM      8  C   LIG    1       16.329  60.313  22.580  0.00  0.00    +0.110 A 
ATOM      9  C   LIG    1       16.815  59.028  22.771  0.00  0.00    -0.040 A 
ATOM     10  C   LIG    1       18.166  58.775  22.628  0.00  0.00    +0.030 A 
ATOM     11  C   LIG    1       19.033  59.802  22.296  0.00  0.00    +0.070 A 
ATOM     12  C   LIG    1       18.548  61.084  22.105  0.00  0.00    +0.040 A 
ATOM     13  F   LIG    1       20.353  59.552  22.157  0.00  0.00    -0.130 F 
ATOM     14  C   LIG    1       17.197  61.341  22.242  0.00  0.00    +0.040 A 
ENDBRANCH   7   8
ENDBRANCH   6   7
ENDBRANCH   1   6
BRANCH   2  15
ATOM     15  C   LIG    1       12.389  62.682  26.021  0.00  0.00    +0.320 C 
BRANCH  15  16
ATOM     16  C   LIG    1       12.704  64.061  26.603  0.00  0.00    +0.220 C 
BRANCH  16  17
ATOM     17  N   LIG    1       13.932  63.984  27.405  0.00  0.00    -0.640 N 
ATOM     18  H   LIG    1       14.161  64.903  27.756  0.00  0.00    +0.440 HD
ATOM     19  H   LIG    1       14.689  63.647  26.830  0.00  0.00    +0.440 HD
ATOM     20  H   LIG    1       13.790  63.355  28.180  0.00  0.00    +0.430 HD
ENDBRANCH  16  17
BRANCH  16  21
ATOM     21  C   LIG    1       11.543  64.519  27.487  0.00  0.00    -0.040 C 
ATOM     22  C   LIG    1       10.995  65.929  27.258  0.00  0.00    +0.030 C 
ATOM     23  C   LIG    1       10.180  64.712  26.820  0.00  0.00    +0.070 C 
ENDBRANCH  16  21
ENDBRANCH  15  16
ENDBRANCH   2  15
TORSDOF 7
ENDMDL
MODEL 
REMARK VINA RESULT:    -8.284      0.000      0.000
REMARK INTER + INTRA:         -11.078
REMARK INTER:                 -10.570
REMARK INTRA:                  -0.508
REMARK UNBOUND:                -0.857
REMARK  Name = ZINC000152502336
REMARK                            x       y       z     vdW  Elec       q    Type
REMARK                         _______ _______ _______ _____ _____    ______ ____
ROOT
ATOM      1  O   LIG    1       12.564  62.401  23.220  0.00  0.00    -0.520 OA
ATOM      2  C   LIG    1       13.687  62.072  23.542  0.00  0.00    +0.530 C 
ATOM      3  N   LIG    1       13.910  61.546  24.763  0.00  0.00    -0.610 N 
ATOM      4  C   LIG    1       15.219  61.112  25.285  0.00  0.00    +0.250 C 
ATOM      5  C   LIG    1       14.883  60.067  26.378  0.00  0.00    +0.040 C 
ATOM      6  C   LIG    1       13.602  60.676  27.007  0.00  0.00    +0.050 C 
ATOM      7  C   LIG    1       12.890  61.317  25.797  0.00  0.00    +0.270 C 
ENDROOT
BRANCH   7   8
ATOM      8  C   LIG    1       12.258  62.622  26.206  0.00  0.00    -0.070 A 
ATOM      9  C   LIG    1       10.882  62.745  26.233  0.00  0.00    +0.020 A 
ATOM     10  C   LIG    1       10.301  63.942  26.608  0.00  0.00    +0.040 A 
ATOM     11  C   LIG    1       11.098  65.017  26.956  0.00  0.00    -0.090 A 
ATOM     12  C   LIG    1       12.475  64.895  26.929  0.00  0.00    +0.040 A 
ATOM     13 BR   LIG    1       10.304  66.655  27.469  0.00  0.00    -0.050 Br
ATOM     14  C   LIG    1       13.055  63.695  26.558  0.00  0.00    +0.030 A 
ENDBRANCH   7   8
BRANCH   2  15
ATOM     15  C   LIG    1       14.831  62.258  22.581  0.00  0.00    +0.290 C 
BRANCH  15  16
ATOM     16  N   LIG    1       15.208  60.960  22.013  0.00  0.00    -0.740 N 
ATOM     17  H   LIG    1       14.542  60.417  21.562  0.00  0.00    +0.410 HD
BRANCH  16  18
ATOM     18  C   LIG    1       16.523  60.505  22.122  0.00  0.00    +0.220 A 
ATOM     19  C   LIG    1       16.779  59.152  22.310  0.00  0.00    -0.080 A 
ATOM     20  C   LIG    1       18.081  58.705  22.417  0.00  0.00    +0.050 A 
ATOM     21  C   LIG    1       19.131  59.603  22.336  0.00  0.00    -0.060 A 
ATOM     22  C   LIG    1       18.879  60.950  22.149  0.00  0.00    +0.050 A 
ATOM     23  C   LIG    1       17.580  61.402  22.036  0.00  0.00    -0.070 A 
ENDBRANCH  16  18
ENDBRANCH  15  16
ENDBRANCH   2  15
TORSDOF 4
ENDMDL
MODEL 
REMARK VINA RESULT:    -7.756      0.000      0.000
REMARK INTER + INTRA:         -12.712
REMARK INTER:                 -11.654
REMARK INTRA:                  -1.059
REMARK UNBOUND:                -0.875
REMARK  Name = ZINC000476600502
REMARK                            x       y       z     vdW  Elec       q    Type
REMARK                         _______ _______ _______ _____ _____    ______ ____
ROOT
ATOM      1  C   LIG    1       14.597  61.803  24.642  0.00  0.00    +0.230 C 
ENDROOT
BRANCH   1   5
ATOM      2  C   LIG    1       11.860  64.233  26.854  0.00  0.00    -0.150 A 
ATOM      3  C   LIG    1       13.132  64.717  26.539  0.00  0.00    +0.060 A 
ATOM      4  C   LIG    1       14.010  63.928  25.826  0.00  0.00    +0.000 A 
ATOM      5  C   LIG    1       13.632  62.659  25.422  0.00  0.00    -0.020 A 
ATOM      6  C   LIG    1       12.374  62.174  25.729  0.00  0.00    +0.070 A 
ATOM      7  C   LIG    1       11.488  62.951  26.448  0.00  0.00    +0.060 A 
BRANCH   2   8
ATOM      8  C   LIG    1       10.915  65.073  27.618  0.00  0.00    +0.510 C 
ATOM      9  O   LIG    1        9.944  64.568  28.146  0.00  0.00    -0.520 OA
BRANCH   8  11
ATOM     10  C   LIG    1       10.348  67.111  28.725  0.00  0.00    +0.260 C 
ATOM     11  O   LIG    1       11.129  66.398  27.730  0.00  0.00    -0.360 OA
ENDBRANCH   8  11
ENDBRANCH   2   8
ENDBRANCH   1   5
BRANCH   1  12
ATOM     12  C   LIG    1       14.318  61.954  23.144  0.00  0.00    +0.450 C 
ATOM     13  F   LIG    1       13.075  62.570  22.962  0.00  0.00    -0.180 F 
ATOM     14  F   LIG    1       14.306  60.691  22.542  0.00  0.00    -0.180 F 
ATOM     15  F   LIG    1       15.318  62.739  22.561  0.00  0.00    -0.210 F 
ENDBRANCH   1  12
BRANCH   1  16
ATOM     16  N   LIG    1       14.428  60.401  25.031  0.00  0.00    -1.150 NA
BRANCH  16  17
ATOM     17  S   LIG    1       15.740  59.513  25.516  0.00  0.00    +2.520 S 
ATOM     18  O   LIG    1       15.346  58.164  25.306  0.00  0.00    -1.040 OA
ATOM     19  O   LIG    1       16.027  59.998  26.821  0.00  0.00    -1.040 OA
BRANCH  17  20
ATOM     20  C   LIG    1       17.056  59.980  24.359  0.00  0.00    -0.350 C 
BRANCH  20  21
ATOM     21  C   LIG    1       17.028  59.044  23.149  0.00  0.00    +0.060 C 
BRANCH  21  22
ATOM     22  C   LIG    1       17.958  59.586  22.062  0.00  0.00    -0.030 C 
ATOM     23  C   LIG    1       18.626  60.939  22.315  0.00  0.00    +0.000 C 
ATOM     24  C   LIG    1       19.452  59.653  22.380  0.00  0.00    -0.010 C 
ENDBRANCH  21  22
ENDBRANCH  20  21
ENDBRANCH  17  20
ENDBRANCH  16  17
ENDBRANCH   1  16
TORSDOF 9
ENDMDL
MODEL 
REMARK VINA RESULT:    -5.080      0.000      0.000
REMARK INTER + INTRA:          -7.370
REMARK INTER:                  -7.058
REMARK INTRA:                  -0.312
REMARK UNBOUND:                -0.508
REMARK  Name = ZINC000877542074
REMARK                            x       y       z     vdW  Elec       q    Type
REMARK                         _______ _______ _______ _____ _____    ______ ____
ROOT
ATOM      1  N   LIG    1       15.344  61.320  22.039  0.00  0.00    -0.510 N 
ATOM      2  H   LIG    1       14.663  60.738  21.573  0.00  0.00    +0.430 HD
ATOM      3  H   LIG    1       15.251  62.271  21.716  0.00  0.00    +0.430 HD
ENDROOT
BRANCH   1   4
ATOM      4  C   LIG    1       16.695  60.831  21.733  0.00  0.00    +0.270 C 
BRANCH   4   5
ATOM      5  C   LIG    1       16.868  59.421  22.301  0.00  0.00    +0.150 C 
BRANCH   5   7
ATOM      6  C   LIG    1       19.138  60.441  22.518  0.00  0.00    +0.030 C 
ATOM      7  C   LIG    1       18.357  59.125  22.488  0.00  0.00    +0.020 C 
ENDBRANCH   5   7
BRANCH   5   8
ATOM      8  O   LIG    1       16.304  58.470  21.395  0.00  0.00    -0.380 OA
ATOM      9  C   LIG    1       15.394  57.553  22.007  0.00  0.00    +0.220 C 
ENDBRANCH   5   8
ENDBRANCH   4   5
ENDBRANCH   1   4
BRANCH   1  10
ATOM     10  C   LIG    1       15.121  61.269  23.489  0.00  0.00    +0.310 C 
BRANCH  10  11
ATOM     11  C   LIG    1       14.399  62.541  23.939  0.00  0.00    -0.030 C 
ATOM     12  C   LIG    1       12.935  62.409  24.363  0.00  0.00    +0.140 C 
ATOM     13  C   LIG    1       14.018  62.652  25.417  0.00  0.00    +0.010 C 
ATOM     14 CL   LIG    1       14.092  64.288  26.174  0.00  0.00    -0.050 Cl
ATOM     15 CL   LIG    1       14.455  61.275  26.495  0.00  0.00    -0.070 Cl
ENDBRANCH  10  11
ENDBRANCH   1  10
TORSDOF 6
ENDMDL
MODEL 
REMARK VINA RESULT:    -8.069      0.000      0.000
REMARK INTER + INTRA:         -12.244
REMARK INTER:                 -11.814
REMARK INTRA:                  -0.430
REMARK UNBOUND:                -0.638
REMARK  Name = ZINC000295363414
REMARK                            x       y       z     vdW  Elec       q    Type
REMARK                         _______ _______ _______ _____ _____    ______ ____
ROOT
ATOM      1  N   LIG    1       10.945  69.169  30.553  0.00  0.00    -0.730 N 
ATOM      2  H   LIG    1       11.481  68.474  30.966  0.00  0.00    +0.400 HD
ATOM      3  C   LIG    1       10.080  68.857  29.567  0.00  0.00    +0.510 C 
ATOM      4  O   LIG    1        9.411  69.727  29.051  0.00  0.00    -0.540 OA
ENDROOT
BRANCH   1   5
ATOM      5  C   LIG    1       11.076  70.558  30.999  0.00  0.00    +0.260 C 
BRANCH   5   6
ATOM      6  C   LIG    1       12.534  70.838  31.372  0.00  0.00    +0.020 C 
BRANCH   6   8
ATOM      7  C   LIG    1       12.920  72.202  33.429  0.00  0.00    +0.040 C 
ATOM      8  C   LIG    1       12.655  72.260  31.923  0.00  0.00    -0.060 C 
ATOM      9  C   LIG    1       11.354  73.022  31.662  0.00  0.00    +0.040 C 
BRANCH   8  10
ATOM     10  C   LIG    1       13.814  72.979  31.229  0.00  0.00    +0.190 C 
BRANCH  10  11
ATOM     11  O   LIG    1       13.959  72.474  29.899  0.00  0.00    -0.570 OA
ATOM     12  H   LIG    1       13.969  73.159  29.217  0.00  0.00    +0.380 HD
ENDBRANCH  10  11
ENDBRANCH   8  10
ENDBRANCH   6   8
ENDBRANCH   5   6
ENDBRANCH   1   5
BRANCH   3  13
ATOM     13  C   LIG    1        9.945  67.428  29.108  0.00  0.00    +0.070 C 
BRANCH  13  14
ATOM     14  C   LIG    1       10.186  67.354  27.598  0.00  0.00    +0.090 C 
BRANCH  14  15
ATOM     15  C   LIG    1       10.652  65.968  27.232  0.00  0.00    -0.080 A 
ATOM     16  C   LIG    1        9.732  64.921  27.201  0.00  0.00    +0.010 A 
ATOM     17  C   LIG    1       10.119  63.658  26.875  0.00  0.00    +0.030 A 
ATOM     18  C   LIG    1       11.465  63.401  26.564  0.00  0.00    -0.060 A 
ATOM     19  C   LIG    1       11.902  62.110  26.222  0.00  0.00    +0.020 A 
ATOM     20  C   LIG    1       13.214  61.900  25.926  0.00  0.00    +0.000 A 
ATOM     21  C   LIG    1       14.133  62.946  25.957  0.00  0.00    +0.000 A 
ATOM     22  C   LIG    1       13.747  64.210  26.284  0.00  0.00    +0.020 A 
ATOM     23  C   LIG    1       12.401  64.467  26.595  0.00  0.00    -0.050 A 
ATOM     24  C   LIG    1       11.963  65.758  26.930  0.00  0.00    +0.030 A 
ENDBRANCH  14  15
ENDBRANCH  13  14
ENDBRANCH   3  13
TORSDOF 8
ENDMDL
MODEL 
REMARK VINA RESULT:    -6.444      0.000      0.000
REMARK INTER + INTRA:          -9.978
REMARK INTER:                  -9.260
REMARK INTRA:                  -0.718
REMARK UNBOUND:                -0.897
REMARK  Name = ZINC000742366519
REMARK                            x       y       z     vdW  Elec       q    Type
REMARK                         _______ _______ _______ _____ _____    ______ ____
ROOT
ATOM      1  C   LIG    1       13.709  61.203  25.947  0.00  0.00    +0.250 C 
ENDROOT
BRANCH   1   2
ATOM      2  N   LIG    1       13.917  62.067  27.116  0.00  0.00    -0.500 N 
ATOM      3  H   LIG    1       14.336  61.530  27.861  0.00  0.00    +0.430 HD
ATOM      4  H   LIG    1       14.529  62.829  26.866  0.00  0.00    +0.430 HD
BRANCH   2   9
ATOM      5  C   LIG    1       11.095  66.014  27.101  0.00  0.00    +0.040 C 
ATOM      6  C   LIG    1       11.204  64.561  27.568  0.00  0.00    +0.000 C 
ATOM      7  C   LIG    1       10.636  63.606  26.498  0.00  0.00    +0.030 C 
ATOM      8  C   LIG    1       11.539  62.360  26.496  0.00  0.00    +0.040 C 
ATOM      9  C   LIG    1       12.625  62.602  27.566  0.00  0.00    +0.170 C 
ATOM     10  C   LIG    1       12.690  64.145  27.703  0.00  0.00    +0.050 C 
ENDBRANCH   2   9
ENDBRANCH   1   2
BRANCH   1  11
ATOM     11  C   LIG    1       14.815  61.458  24.921  0.00  0.00    +0.030 C 
BRANCH  11  12
ATOM     12  C   LIG    1       14.229  62.182  23.707  0.00  0.00    +0.060 C 
BRANCH  12  13
ATOM     13  C   LIG    1       14.601  61.422  22.432  0.00  0.00    +0.200 C 
BRANCH  13  14
ATOM     14  O   LIG    1       15.898  61.835  21.994  0.00  0.00    -0.320 OA
BRANCH  14  15
ATOM     15  C   LIG    1       16.910  60.939  22.135  0.00  0.00    +0.120 A 
ATOM     16  C   LIG    1       18.227  61.373  22.148  0.00  0.00    -0.090 A 
ATOM     17  C   LIG    1       19.253  60.459  22.292  0.00  0.00    +0.050 A 
ATOM     18  C   LIG    1       18.968  59.113  22.422  0.00  0.00    -0.020 A 
ATOM     19  C   LIG    1       17.656  58.677  22.408  0.00  0.00    +0.050 A 
ATOM     20  C   LIG    1       16.626  59.587  22.272  0.00  0.00    -0.020 A 
ENDBRANCH  14  15
ENDBRANCH  13  14
ENDBRANCH  12  13
ENDBRANCH  11  12
ENDBRANCH   1  11
TORSDOF 7
ENDMDL
MODEL 
REMARK VINA RESULT:    -6.712      0.000      0.000
REMARK INTER + INTRA:         -10.235
REMARK INTER:                  -9.612
REMARK INTRA:                  -0.622
REMARK UNBOUND:                -0.776
REMARK  Name = ZINC001113550499
REMARK                            x       y       z     vdW  Elec       q    Type
REMARK                         _______ _______ _______ _____ _____    ______ ____
ROOT
ATOM      1  N   LIG    1       13.461  62.045  25.239  0.00  0.00    -0.380 N 
ATOM      2  C   LIG    1       13.290  62.298  23.803  0.00  0.00    +0.260 C 
ATOM      3  C   LIG    1       14.665  62.398  23.136  0.00  0.00    +0.330 C 
ATOM      4  N   LIG    1       15.426  61.177  23.451  0.00  0.00    -0.630 N 
ATOM      5  C   LIG    1       15.511  60.758  24.858  0.00  0.00    +0.320 C 
ATOM      6  C   LIG    1       16.028  60.467  22.478  0.00  0.00    +0.540 C 
ATOM      7  O   LIG    1       15.863  60.769  21.314  0.00  0.00    -0.500 OA
ATOM      8  C   LIG    1       14.094  60.735  25.442  0.00  0.00    +0.270 C 
ATOM      9  H   LIG    1       14.045  62.764  25.640  0.00  0.00    +0.420 HD
ENDROOT
BRANCH   1  10
ATOM     10  C   LIG    1       12.148  62.059  25.898  0.00  0.00    +0.250 C 
BRANCH  10  11
ATOM     11  C   LIG    1       11.701  63.506  26.112  0.00  0.00    -0.020 C 
ATOM     12  C   LIG    1       12.775  64.260  26.900  0.00  0.00    +0.050 C 
BRANCH  11  14
ATOM     13  C   LIG    1        9.811  64.941  26.894  0.00  0.00    +0.030 C 
ATOM     14  C   LIG    1       10.387  63.523  26.896  0.00  0.00    +0.020 C 
ENDBRANCH  11  14
ENDBRANCH  10  11
ENDBRANCH   1  10
BRANCH   6  15
ATOM     15  C   LIG    1       16.905  59.294  22.834  0.00  0.00    +0.000 C 
BRANCH  15  16
ATOM     16  C   LIG    1       16.162  57.991  22.535  0.00  0.00    +0.030 C 
ATOM     17  C   LIG    1       15.861  57.263  23.847  0.00  0.00    +0.040 C 
ENDBRANCH  15  16
BRANCH  15  18
ATOM     18  C   LIG    1       18.191  59.349  22.006  0.00  0.00    +0.090 C 
BRANCH  18  19
ATOM     19  C   LIG    1       19.082  60.481  22.524  0.00  0.00    +0.450 C 
ATOM     20  F   LIG    1       20.421  60.078  22.479  0.00  0.00    -0.180 F 
ATOM     21  F   LIG    1       18.730  60.783  23.844  0.00  0.00    -0.170 F 
ATOM     22  F   LIG    1       18.907  61.615  21.724  0.00  0.00    -0.180 F 
ENDBRANCH  18  19
ENDBRANCH  15  18
ENDBRANCH   6  15
TORSDOF 7
ENDMDL
MODEL 
REMARK VINA RESULT:    -6.466      0.000      0.000
REMARK INTER + INTRA:          -9.535
REMARK INTER:                  -9.114
REMARK INTRA:                  -0.422
REMARK UNBOUND:                -0.612
REMARK  Name = ZINC001574959610
REMARK                            x       y       z     vdW  Elec       q    Type
REMARK                         _______ _______ _______ _____ _____    ______ ____
ROOT
ATOM      1  N   LIG    1       14.190  61.458  24.464  0.00  0.00    -0.660 N 
ATOM      2  H   LIG    1       14.477  60.634  24.890  0.00  0.00    +0.410 HD
ATOM      3  C   LIG    1       14.367  61.627  23.138  0.00  0.00    +0.510 C 
ATOM      4  O   LIG    1       13.935  62.620  22.591  0.00  0.00    -0.510 OA
ENDROOT
BRANCH   1   8
ATOM      5  C   LIG    1       12.414  64.470  26.734  0.00  0.00    +0.120 A 
ATOM      6  C   LIG    1       13.775  64.514  26.467  0.00  0.00    +0.010 A 
ATOM      7  C   LIG    1       14.364  63.516  25.716  0.00  0.00    +0.070 A 
ATOM      8  C   LIG    1       13.593  62.469  25.226  0.00  0.00    +0.090 A 
ATOM      9  C   LIG    1       12.232  62.427  25.493  0.00  0.00    +0.030 A 
ATOM     10  C   LIG    1       11.645  63.422  26.250  0.00  0.00    -0.040 A 
BRANCH   5  11
ATOM     11  O   LIG    1       11.834  65.453  27.474  0.00  0.00    -0.250 OA
BRANCH  11  13
ATOM     12  C   LIG    1       10.032  66.895  27.289  0.00  0.00    +0.020 C 
ATOM     13  C   LIG    1       10.504  65.665  27.320  0.00  0.00    +0.130 C 
ENDBRANCH  11  13
ENDBRANCH   5  11
ENDBRANCH   1   8
BRANCH   3  14
ATOM     14  C   LIG    1       15.101  60.584  22.336  0.00  0.00    +0.040 C 
BRANCH  14  15
ATOM     15  C   LIG    1       16.512  61.082  22.021  0.00  0.00    +0.090 C 
BRANCH  15  16
ATOM     16  C   LIG    1       17.531  60.006  22.405  0.00  0.00    +0.060 C 
ATOM     17  C   LIG    1       17.294  59.573  23.854  0.00  0.00    +0.100 C 
ATOM     18  C   LIG    1       18.946  60.570  22.265  0.00  0.00    +0.100 C 
BRANCH  16  19
ATOM     19  N   LIG    1       17.376  58.846  21.516  0.00  0.00    -0.640 N 
ATOM     20  H   LIG    1       16.479  58.893  21.056  0.00  0.00    +0.440 HD
ATOM     21  H   LIG    1       17.432  57.998  22.058  0.00  0.00    +0.440 HD
ATOM     22  H   LIG    1       18.109  58.853  20.823  0.00  0.00    +0.430 HD
ENDBRANCH  16  19
ENDBRANCH  15  16
ENDBRANCH  14  15
ENDBRANCH   3  14
TORSDOF 7
ENDMDL
MODEL 
REMARK VINA RESULT:    -7.079      0.000      0.000
REMARK INTER + INTRA:          -9.962
REMARK INTER:                  -9.214
REMARK INTRA:                  -0.748
REMARK UNBOUND:                -0.400
REMARK  Name = ZINC000423471058
REMARK                            x       y       z     vdW  Elec       q    Type
REMARK                         _______ _______ _______ _____ _____    ______ ____
ROOT
ATOM      1  N   LIG    1       14.884  61.483  25.321  0.00  0.00    -0.510 N 
ATOM      2  H   LIG    1       14.908  61.964  26.208  0.00  0.00    +0.430 HD
ATOM      3  H   LIG    1       15.625  61.831  24.732  0.00  0.00    +0.430 HD
ENDROOT
BRANCH   1   5
ATOM      4  C   LIG    1       13.818  62.208  23.238  0.00  0.00    +0.100 C 
ATOM      5  C   LIG    1       13.589  61.719  24.670  0.00  0.00    +0.230 C 
BRANCH   5   6
ATOM      6  C   LIG    1       12.822  62.763  25.441  0.00  0.00    -0.140 A 
ATOM      7  C   LIG    1       13.495  63.800  26.057  0.00  0.00    +0.010 A 
ATOM      8  C   LIG    1       12.792  64.759  26.764  0.00  0.00    +0.070 A 
ATOM      9  C   LIG    1       11.414  64.678  26.853  0.00  0.00    -0.080 A 
ATOM     10  C   LIG    1       10.741  63.640  26.235  0.00  0.00    +0.080 A 
ATOM     11  I   LIG    1       10.348  66.129  27.923  0.00  0.00    +0.000 I 
ATOM     12  C   LIG    1       11.444  62.685  25.525  0.00  0.00    +0.060 A 
ENDBRANCH   5   6
ENDBRANCH   1   5
BRANCH   1  13
ATOM     13  C   LIG    1       15.068  60.042  25.540  0.00  0.00    +0.270 C 
BRANCH  13  14
ATOM     14  C   LIG    1       16.405  59.602  24.943  0.00  0.00    +0.010 C 
BRANCH  14  15
ATOM     15  C   LIG    1       16.152  58.711  23.725  0.00  0.00    +0.090 C 
BRANCH  15  16
ATOM     16  C   LIG    1       17.044  59.165  22.567  0.00  0.00    +0.180 C 
ATOM     17  C   LIG    1       18.260  59.941  23.114  0.00  0.00    +0.080 C 
ATOM     18  C   LIG    1       18.449  61.075  22.073  0.00  0.00    +0.070 C 
ATOM     19  C   LIG    1       16.982  61.395  21.689  0.00  0.00    +0.270 C 
ATOM     20  N   LIG    1       16.296  60.081  21.687  0.00  0.00    -0.520 N 
ATOM     21  H   LIG    1       15.354  60.188  22.034  0.00  0.00    +0.420 HD
ATOM     22  H   LIG    1       16.273  59.712  20.748  0.00  0.00    +0.430 HD
ENDBRANCH  15  16
ENDBRANCH  14  15
ENDBRANCH  13  14
ENDBRANCH   1  13
TORSDOF 6
ENDMDL
MODEL 
REMARK VINA RESULT:    -6.951      0.000      0.000
REMARK INTER + INTRA:         -11.086
REMARK INTER:                 -10.325
REMARK INTRA:                  -0.760
REMARK UNBOUND:                -0.478
REMARK  Name = ZINC000181385477
REMARK                            x       y       z     vdW  Elec       q    Type
REMARK                         _______ _______ _______ _____ _____    ______ ____
ROOT
ATOM      1  C   LIG    1       15.330  60.030  23.355  0.00  0.00    +0.200 A 
ATOM      2  C   LIG    1       14.737  61.209  22.923  0.00  0.00    -0.060 A 
ATOM      3  C   LIG    1       14.264  62.122  23.845  0.00  0.00    +0.060 A 
ATOM      4  C   LIG    1       14.382  61.861  25.204  0.00  0.00    +0.080 A 
ATOM      5  C   LIG    1       14.974  60.682  25.636  0.00  0.00    +0.020 A 
ATOM      6  C   LIG    1       15.442  59.766  24.714  0.00  0.00    -0.050 A 
ENDROOT
BRANCH   4   7
ATOM      7  N   LIG    1       13.902  62.788  26.139  0.00  0.00    -0.670 N 
ATOM      8  H   LIG    1       14.460  63.532  26.415  0.00  0.00    +0.410 HD
ATOM      9  C   LIG    1       12.665  62.646  26.656  0.00  0.00    +0.510 C 
ATOM     10  O   LIG    1       12.004  61.666  26.385  0.00  0.00    -0.520 OA
BRANCH   9  11
ATOM     11  C   LIG    1       12.104  63.705  27.569  0.00  0.00    +0.050 C 
BRANCH  11  12
ATOM     12  C   LIG    1       12.060  65.044  26.829  0.00  0.00    +0.060 C 
BRANCH  12  13
ATOM     13  C   LIG    1       10.746  65.760  27.150  0.00  0.00    +0.140 C 
ATOM     14  C   LIG    1        9.858  64.842  27.994  0.00  0.00    +0.020 C 
BRANCH  13  15
ATOM     15  O   LIG    1       11.022  66.957  27.879  0.00  0.00    -0.380 OA
ATOM     16  C   LIG    1        9.927  67.416  28.676  0.00  0.00    +0.200 C 
ENDBRANCH  13  15
ENDBRANCH  12  13
ENDBRANCH  11  12
ENDBRANCH   9  11
ENDBRANCH   4   7
BRANCH   1  17
ATOM     17  N   LIG    1       15.809  59.105  22.422  0.00  0.00    -0.630 N 
ATOM     18  C   LIG    1       15.110  57.832  22.227  0.00  0.00    +0.280 C 
BRANCH  17  19
ATOM     19  C   LIG    1       17.011  59.408  21.640  0.00  0.00    +0.270 C 
BRANCH  19  20
ATOM     20  C   LIG    1       18.249  58.941  22.410  0.00  0.00    -0.010 C 
BRANCH  20  22
ATOM     21  C   LIG    1       18.640  61.379  22.020  0.00  0.00    +0.000 C 
ATOM     22  C   LIG    1       19.301  60.053  22.405  0.00  0.00    +0.000 C 
ENDBRANCH  20  22
ENDBRANCH  19  20
ENDBRANCH  17  19
ENDBRANCH   1  17
TORSDOF 9
ENDMDL
MODEL 
REMARK VINA RESULT:    -7.371      0.000      0.000
REMARK INTER + INTRA:         -11.598
REMARK INTER:                 -10.374
REMARK INTRA:                  -1.225
REMARK UNBOUND:                -1.211
REMARK  Name = ZINC000876644518
REMARK                            x       y       z     vdW  Elec       q    Type
REMARK                         _______ _______ _______ _____ _____    ______ ____
ROOT
ATOM      1  N   LIG    1       14.389  61.745  26.262  0.00  0.00    -0.710 N 
ATOM      2  H   LIG    1       15.249  62.194  26.256  0.00  0.00    +0.400 HD
ATOM      3  C   LIG    1       14.319  60.427  26.537  0.00  0.00    +0.550 C 
ATOM      4  O   LIG    1       13.242  59.863  26.543  0.00  0.00    -0.550 OA
ENDROOT
BRANCH   3   5
ATOM      5  C   LIG    1       15.547  59.670  26.826  0.00  0.00    -0.050 C 
ATOM      6  C   LIG    1       16.265  59.161  25.829  0.00  0.00    +0.060 C 
BRANCH   6   7
ATOM      7  C   LIG    1       16.059  59.658  24.422  0.00  0.00    +0.030 C 
ATOM      8  C   LIG    1       17.386  60.184  23.865  0.00  0.00    +0.040 C 
ATOM      9  C   LIG    1       17.184  60.613  22.410  0.00  0.00    +0.060 C 
ATOM     10  C   LIG    1       16.645  59.429  21.604  0.00  0.00    +0.250 C 
ATOM     11  N   LIG    1       15.363  58.991  22.169  0.00  0.00    -0.500 N 
ATOM     12  H   LIG    1       14.986  58.245  21.605  0.00  0.00    +0.430 HD
ATOM     13  H   LIG    1       14.717  59.766  22.177  0.00  0.00    +0.430 HD
ATOM     14  C   LIG    1       15.561  58.510  23.542  0.00  0.00    +0.260 C 
ENDBRANCH   6   7
ENDBRANCH   3   5
BRANCH   1  15
ATOM     15  C   LIG    1       13.167  62.499  25.973  0.00  0.00    +0.240 C 
BRANCH  15  16
ATOM     16  C   LIG    1       12.846  62.397  24.480  0.00  0.00    +0.010 C 
BRANCH  16  18
ATOM     17  C   LIG    1       13.865  62.264  22.203  0.00  0.00    +0.000 C 
ATOM     18  C   LIG    1       14.121  62.626  23.668  0.00  0.00    +0.010 C 
ENDBRANCH  16  18
ENDBRANCH  15  16
BRANCH  15  19
ATOM     19  C   LIG    1       13.371  63.966  26.353  0.00  0.00    +0.080 C 
BRANCH  19  20
ATOM     20  C   LIG    1       12.096  64.515  26.941  0.00  0.00    -0.090 A 
ATOM     21  C   LIG    1       11.851  65.875  26.911  0.00  0.00    +0.000 A 
ATOM     22  C   LIG    1       10.682  66.378  27.451  0.00  0.00    +0.000 A 
ATOM     23  C   LIG    1        9.758  65.521  28.020  0.00  0.00    +0.000 A 
ATOM     24  C   LIG    1       10.004  64.161  28.049  0.00  0.00    +0.000 A 
ATOM     25  C   LIG    1       11.171  63.657  27.505  0.00  0.00    +0.000 A 
ENDBRANCH  19  20
ENDBRANCH  15  19
ENDBRANCH   1  15
TORSDOF 7
ENDMDL
MODEL 
REMARK VINA RESULT:    -7.532      0.000      0.000
REMARK INTER + INTRA:          -9.599
REMARK INTER:                  -8.986
REMARK INTRA:                  -0.613
REMARK UNBOUND:                -0.526
REMARK  Name = ZINC000649067626
REMARK                            x       y       z     vdW  Elec       q    Type
REMARK                         _______ _______ _______ _____ _____    ______ ____
ROOT
ATOM      1  C   LIG    1       16.306  59.847  23.692  0.00  0.00    +0.500 C 
ATOM      2  N   LIG    1       15.267  60.695  23.829  0.00  0.00    -0.620 N 
ATOM      3  C   LIG    1       14.730  61.570  22.776  0.00  0.00    +0.230 C 
ATOM      4  C   LIG    1       13.569  62.375  23.397  0.00  0.00    +0.030 C 
ATOM      5  C   LIG    1       13.880  62.321  24.916  0.00  0.00    -0.010 C 
ATOM      6  C   LIG    1       14.478  60.896  25.058  0.00  0.00    +0.260 C 
ATOM      7  O   LIG    1       16.598  59.097  24.599  0.00  0.00    -0.530 OA
ENDROOT
BRANCH   5   8
ATOM      8  C   LIG    1       12.602  62.464  25.743  0.00  0.00    +0.010 C 
ATOM      9  C   LIG    1       12.348  61.175  26.551  0.00  0.00    +0.020 C 
ATOM     10  C   LIG    1       11.776  61.678  27.899  0.00  0.00    +0.010 C 
ATOM     11  C   LIG    1       12.600  62.963  28.163  0.00  0.00    +0.020 C 
ATOM     12  C   LIG    1       12.762  63.601  26.767  0.00  0.00    -0.060 C 
ATOM     13  C   LIG    1       11.680  64.661  26.548  0.00  0.00    +0.020 C 
ATOM     14  C   LIG    1       14.150  64.233  26.637  0.00  0.00    +0.020 C 
ENDBRANCH   5   8
BRANCH   1  15
ATOM     15  C   LIG    1       17.102  59.832  22.413  0.00  0.00    +0.220 C 
BRANCH  15  17
ATOM     16  C   LIG    1       19.579  59.524  22.314  0.00  0.00    +0.030 C 
ATOM     17  C   LIG    1       18.454  60.506  22.646  0.00  0.00    -0.040 C 
ATOM     18  C   LIG    1       18.572  61.739  21.748  0.00  0.00    +0.050 C 
ENDBRANCH  15  17
BRANCH  15  19
ATOM     19  O   LIG    1       17.309  58.480  21.998  0.00  0.00    -0.540 OA
ATOM     20  H   LIG    1       18.067  58.051  22.419  0.00  0.00    +0.380 HD
ENDBRANCH  15  19
ENDBRANCH   1  15
TORSDOF 4
ENDMDL
MODEL 
REMARK VINA RESULT:    -8.290      0.000      0.000
REMARK INTER + INTRA:         -11.117
REMARK INTER:                 -10.358
REMARK INTRA:                  -0.759
REMARK UNBOUND:                -0.888
REMARK  Name = ZINC000550665564
REMARK                            x       y       z     vdW  Elec       q    Type
REMARK                         _______ _______ _______ _____ _____    ______ ____
ROOT
ATOM      1  N   LIG    1       15.265  60.847  23.090  0.00  0.00    -0.480 N 
ATOM      2  C   LIG    1       14.765  61.830  22.119  0.00  0.00    +0.200 C 
ATOM      3  C   LIG    1       13.275  62.076  22.361  0.00  0.00    +0.070 C 
ATOM      4  C   LIG    1       13.072  62.590  23.789  0.00  0.00    +0.030 C 
ATOM      5  C   LIG    1       13.644  61.571  24.778  0.00  0.00    +0.170 C 
ATOM      6  C   LIG    1       15.124  61.341  24.466  0.00  0.00    +0.200 C 
ENDROOT
BRANCH   1  14
ATOM      7  C   LIG    1       16.054  58.142  23.480  0.00  0.00    +0.120 C 
ATOM      8  C   LIG    1       17.019  59.192  22.994  0.00  0.00    -0.020 A 
ATOM      9  C   LIG    1       18.330  58.851  22.721  0.00  0.00    -0.010 A 
ATOM     10  C   LIG    1       19.218  59.816  22.275  0.00  0.00    +0.120 A 
ATOM     11  C   LIG    1       18.795  61.122  22.100  0.00  0.00    -0.010 A 
ATOM     12  C   LIG    1       17.485  61.467  22.372  0.00  0.00    +0.020 A 
ATOM     13  F   LIG    1       20.500  59.481  22.009  0.00  0.00    -0.130 F 
ATOM     14  C   LIG    1       16.591  60.500  22.815  0.00  0.00    +0.050 A 
ENDBRANCH   1  14
BRANCH   5  15
ATOM     15  N   LIG    1       13.504  62.084  26.147  0.00  0.00    -0.500 N 
ATOM     16  H   LIG    1       14.392  62.016  26.624  0.00  0.00    +0.430 HD
ATOM     17  H   LIG    1       12.815  61.539  26.642  0.00  0.00    +0.420 HD
BRANCH  15  18
ATOM     18  C   LIG    1       13.079  63.489  26.103  0.00  0.00    +0.170 C 
ATOM     19  C   LIG    1       14.257  64.390  26.483  0.00  0.00    +0.110 C 
BRANCH  18  20
ATOM     20  C   LIG    1       11.933  63.706  27.092  0.00  0.00    +0.090 C 
ATOM     21  C   LIG    1       10.580  63.636  26.351  0.00  0.00    +0.040 C 
ATOM     22  C   LIG    1        9.765  64.761  27.044  0.00  0.00    +0.030 C 
ATOM     23  C   LIG    1       10.881  65.793  27.342  0.00  0.00    +0.220 C 
ATOM     24  C   LIG    1       11.982  62.637  28.187  0.00  0.00    +0.060 C 
ATOM     25  O   LIG    1       12.037  65.008  27.680  0.00  0.00    -0.370 OA
ENDBRANCH  18  20
ENDBRANCH  15  18
ENDBRANCH   5  15
TORSDOF 4
ENDMDL
MODEL 
REMARK VINA RESULT:    -6.226      0.000      0.000
REMARK INTER + INTRA:         -10.566
REMARK INTER:                  -9.641
REMARK INTRA:                  -0.925
REMARK UNBOUND:                -1.428
REMARK  Name = ZINC000590125477
REMARK                            x       y       z     vdW  Elec       q    Type
REMARK                         _______ _______ _______ _____ _____    ______ ____
ROOT
ATOM      1  C   LIG    1       14.463  61.876  22.517  0.00  0.00    +0.030 C 
ENDROOT
BRANCH   1   2
ATOM      2  C   LIG    1       15.889  61.328  22.423  0.00  0.00    +0.260 C 
BRANCH   2   7
ATOM      3  C   LIG    1       17.389  59.670  23.305  0.00  0.00    +0.160 C 
ATOM      4  C   LIG    1       17.566  58.294  22.629  0.00  0.00    +0.070 C 
ATOM      5  C   LIG    1       16.125  57.719  22.626  0.00  0.00    +0.080 C 
ATOM      6  C   LIG    1       15.279  58.995  22.390  0.00  0.00    +0.260 C 
ATOM      7  N   LIG    1       15.975  60.057  23.154  0.00  0.00    -0.390 N 
ATOM      8  H   LIG    1       15.547  60.158  24.062  0.00  0.00    +0.430 HD
BRANCH   3  10
ATOM      9  C   LIG    1       19.632  60.062  22.276  0.00  0.00    +0.060 C 
ATOM     10  C   LIG    1       18.287  60.704  22.625  0.00  0.00    +0.040 C 
ENDBRANCH   3  10
ENDBRANCH   2   7
ENDBRANCH   1   2
BRANCH   1  11
ATOM     11  C   LIG    1       14.272  62.572  23.866  0.00  0.00    +0.190 C 
BRANCH  11  12
ATOM     12  O   LIG    1       14.089  61.589  24.887  0.00  0.00    -0.390 OA
BRANCH  12  13
ATOM     13  C   LIG    1       13.789  62.136  26.173  0.00  0.00    +0.190 C 
BRANCH  13  14
ATOM     14  C   LIG    1       13.701  63.660  26.071  0.00  0.00    +0.080 C 
BRANCH  14  15
ATOM     15  C   LIG    1       12.342  64.117  26.535  0.00  0.00    -0.090 A 
ATOM     16  C   LIG    1       11.307  63.208  26.645  0.00  0.00    +0.010 A 
ATOM     17  C   LIG    1       10.061  63.628  27.071  0.00  0.00    +0.010 A 
ATOM     18  C   LIG    1        9.850  64.956  27.389  0.00  0.00    +0.010 A 
ATOM     19  C   LIG    1       10.885  65.866  27.281  0.00  0.00    +0.010 A 
ATOM     20  C   LIG    1       12.133  65.446  26.858  0.00  0.00    +0.010 A 
ENDBRANCH  14  15
ENDBRANCH  13  14
ENDBRANCH  12  13
ENDBRANCH  11  12
ENDBRANCH   1  11
TORSDOF 8
ENDMDL
MODEL 
REMARK VINA RESULT:    -7.313      0.000      0.000
REMARK INTER + INTRA:         -10.858
REMARK INTER:                 -10.479
REMARK INTRA:                  -0.379
REMARK UNBOUND:                -0.553
REMARK  Name = ZINC001066448412
REMARK                            x       y       z     vdW  Elec       q    Type
REMARK                         _______ _______ _______ _____ _____    ______ ____
ROOT
ATOM      1  C   LIG    1       13.552  62.044  25.047  0.00  0.00    +0.230 C 
ATOM      2  C   LIG    1       14.505  61.114  25.793  0.00  0.00    +0.020 C 
ATOM      3  C   LIG    1       14.240  59.688  25.375  0.00  0.00    +0.020 C 
ATOM      4  C   LIG    1       15.148  59.306  24.192  0.00  0.00    +0.260 C 
ATOM      5  N   LIG    1       15.270  60.401  23.210  0.00  0.00    -0.610 N 
ATOM      6  C   LIG    1       14.143  61.205  22.791  0.00  0.00    +0.290 C 
ATOM      7  C   LIG    1       16.481  60.662  22.681  0.00  0.00    +0.510 C 
ATOM      8  O   LIG    1       16.610  61.556  21.871  0.00  0.00    -0.530 OA
ATOM      9  C   LIG    1       14.022  62.444  23.712  0.00  0.00    +0.010 C 
ENDROOT
BRANCH   1  11
ATOM     10  C   LIG    1       12.108  63.678  26.132  0.00  0.00    +0.510 C 
ATOM     11  N   LIG    1       13.356  63.251  25.853  0.00  0.00    -0.740 N 
ATOM     12  H   LIG    1       14.123  63.743  26.185  0.00  0.00    +0.400 HD
ATOM     13  O   LIG    1       11.149  63.063  25.718  0.00  0.00    -0.530 OA
BRANCH  10  14
ATOM     14  C   LIG    1       11.905  64.921  26.961  0.00  0.00    +0.050 C 
BRANCH  14  15
ATOM     15  C   LIG    1       10.408  65.194  27.114  0.00  0.00    +0.010 C 
BRANCH  15  17
ATOM     16  C   LIG    1        8.738  63.580  28.037  0.00  0.00    +0.000 C 
ATOM     17  C   LIG    1        9.894  64.519  28.387  0.00  0.00    +0.000 C 
ENDBRANCH  15  17
BRANCH  15  18
ATOM     18  C   LIG    1       10.171  66.702  27.205  0.00  0.00    +0.010 C 
ATOM     19  C   LIG    1       10.083  67.117  28.675  0.00  0.00    -0.010 C 
ENDBRANCH  15  18
ENDBRANCH  14  15
ENDBRANCH  10  14
ENDBRANCH   1  11
BRANCH   7  20
ATOM     20  C   LIG    1       17.677  59.842  23.095  0.00  0.00    -0.010 C 
ATOM     21  C   LIG    1       17.780  58.604  22.202  0.00  0.00    +0.040 C 
BRANCH  20  22
ATOM     22  C   LIG    1       18.947  60.683  22.950  0.00  0.00    +0.030 C 
ATOM     23  C   LIG    1       19.987  59.903  22.145  0.00  0.00    +0.020 C 
ENDBRANCH  20  22
ENDBRANCH   7  20
TORSDOF 7
ENDMDL
MODEL 
REMARK VINA RESULT:    -8.012      0.000      0.000
REMARK INTER + INTRA:         -10.933
REMARK INTER:                 -10.417
REMARK INTRA:                  -0.516
REMARK UNBOUND:                -0.580
REMARK  Name = ZINC000931615182
REMARK                            x       y       z     vdW  Elec       q    Type
REMARK                         _______ _______ _______ _____ _____    ______ ____
ROOT
ATOM      1  C   LIG    1       15.093  60.743  25.266  0.00  0.00    +0.150 C 
ATOM      2  C   LIG    1       14.313  62.063  25.144  0.00  0.00    +0.070 C 
ATOM      3  C   LIG    1       13.465  61.581  26.333  0.00  0.00    +0.180 C 
ATOM      4  C   LIG    1       13.829  60.148  25.909  0.00  0.00    +0.050 C 
ENDROOT
BRANCH   1   9
ATOM      5  C   LIG    1       16.954  59.039  21.511  0.00  0.00    +0.110 C 
ATOM      6  C   LIG    1       17.214  60.279  22.369  0.00  0.00    -0.130 C 
ATOM      7  C   LIG    1       16.197  61.404  22.042  0.00  0.00    +0.110 C 
ATOM      8  C   LIG    1       14.961  61.010  22.878  0.00  0.00    +0.270 C 
ATOM      9  N   LIG    1       15.433  60.139  23.970  0.00  0.00    -0.380 N 
ATOM     10  H   LIG    1       14.998  59.232  23.893  0.00  0.00    +0.430 HD
ATOM     11  C   LIG    1       16.900  59.998  23.860  0.00  0.00    +0.300 C 
BRANCH   6  12
ATOM     12  C   LIG    1       18.652  60.771  22.195  0.00  0.00    +0.470 C 
ATOM     13  F   LIG    1       18.655  61.938  21.426  0.00  0.00    -0.170 F 
ATOM     14  F   LIG    1       19.406  59.784  21.550  0.00  0.00    -0.170 F 
ATOM     15  F   LIG    1       19.209  61.037  23.451  0.00  0.00    -0.160 F 
ENDBRANCH   6  12
ENDBRANCH   1   9
BRANCH   3  16
ATOM     16  O   LIG    1       12.074  61.880  26.202  0.00  0.00    -0.360 OA
BRANCH  16  17
ATOM     17  C   LIG    1       11.434  62.218  27.433  0.00  0.00    +0.230 C 
BRANCH  17  18
ATOM     18  C   LIG    1       11.151  63.698  27.464  0.00  0.00    -0.110 A 
ATOM     19  C   LIG    1        9.992  64.168  28.052  0.00  0.00    +0.020 A 
ATOM     20  C   LIG    1        9.733  65.526  28.079  0.00  0.00    +0.010 A 
ATOM     21  C   LIG    1       10.633  66.413  27.519  0.00  0.00    +0.020 A 
ATOM     22  C   LIG    1       11.793  65.944  26.932  0.00  0.00    +0.010 A 
ATOM     23  C   LIG    1       12.054  64.585  26.908  0.00  0.00    +0.020 A 
ENDBRANCH  17  18
ENDBRANCH  16  17
ENDBRANCH   3  16
TORSDOF 5
ENDMDL
MODEL 
REMARK VINA RESULT:    -7.035      0.000      0.000
REMARK INTER + INTRA:          -9.486
REMARK INTER:                  -9.040
REMARK INTRA:                  -0.446
REMARK UNBOUND:                -0.394
REMARK  Name = ZINC001235724497
REMARK                            x       y       z     vdW  Elec       q    Type
REMARK                         _______ _______ _______ _____ _____    ______ ____
ROOT
ATOM      1  C   LIG    1       18.003  59.118  22.646  0.00  0.00    +0.180 C 
ATOM      2  C   LIG    1       17.281  59.994  23.673  0.00  0.00    +0.220 C 
ATOM      3  N   LIG    1       16.092  59.289  24.169  0.00  0.00    -0.380 N 
ATOM      4  C   LIG    1       15.179  59.018  23.051  0.00  0.00    +0.220 C 
ATOM      5  C   LIG    1       15.883  58.134  22.019  0.00  0.00    +0.270 C 
ATOM      6  H   LIG    1       16.372  58.417  24.594  0.00  0.00    +0.420 HD
ATOM      7  N   LIG    1       17.090  58.818  21.534  0.00  0.00    -0.670 NA
ATOM      8  H   LIG    1       16.851  59.656  21.027  0.00  0.00    +0.360 HD
ENDROOT
BRANCH   1  10
ATOM      9  C   LIG    1       18.914  61.355  22.009  0.00  0.00    +0.040 C 
ATOM     10  C   LIG    1       19.230  59.861  22.114  0.00  0.00    +0.030 C 
ENDBRANCH   1  10
BRANCH   3  11
ATOM     11  C   LIG    1       15.409  60.123  25.168  0.00  0.00    +0.250 C 
BRANCH  11  12
ATOM     12  C   LIG    1       14.295  60.922  24.489  0.00  0.00    +0.040 C 
BRANCH  12  13
ATOM     13  C   LIG    1       14.568  62.418  24.655  0.00  0.00    +0.110 C 
BRANCH  13  14
ATOM     14  C   LIG    1       13.433  63.054  25.415  0.00  0.00    -0.100 A 
ATOM     15  C   LIG    1       12.167  62.503  25.357  0.00  0.00    +0.030 A 
ATOM     16  C   LIG    1       11.126  63.085  26.055  0.00  0.00    +0.030 A 
ATOM     17  C   LIG    1       11.351  64.222  26.810  0.00  0.00    -0.030 A 
ATOM     18  C   LIG    1       12.618  64.775  26.868  0.00  0.00    +0.030 A 
ATOM     19 CL   LIG    1       10.043  64.956  27.686  0.00  0.00    -0.060 Cl
ATOM     20  C   LIG    1       13.659  64.187  26.175  0.00  0.00    +0.030 A 
ENDBRANCH  13  14
ENDBRANCH  12  13
ENDBRANCH  11  12
ENDBRANCH   3  11
TORSDOF 5
ENDMDL
MODEL 
REMARK VINA RESULT:    -8.025      0.000      0.000
REMARK INTER + INTRA:         -11.680
REMARK INTER:                 -11.043
REMARK INTRA:                  -0.637
REMARK UNBOUND:                -0.840
REMARK  Name = ZINC000353882426
REMARK                            x       y       z     vdW  Elec       q    Type
REMARK                         _______ _______ _______ _____ _____    ______ ____
ROOT
ATOM      1  N   LIG    1       13.215  62.961  26.807  0.00  0.00    -0.690 N 
ATOM      2  H   LIG    1       14.008  63.513  26.897  0.00  0.00    +0.420 HD
ENDROOT
BRANCH   1   7
ATOM      3  C   LIG    1       10.527  65.390  27.347  0.00  0.00    +0.080 A 
ATOM      4  C   LIG    1        9.497  64.507  27.644  0.00  0.00    +0.010 A 
ATOM      5  C   LIG    1        9.750  63.150  27.648  0.00  0.00    +0.360 A 
ATOM      6  N   LIG    1       10.955  62.684  27.376  0.00  0.00    -0.510 N 
ATOM      7  C   LIG    1       11.962  63.494  27.088  0.00  0.00    +0.450 A 
ATOM      8  H   LIG    1       11.105  61.727  27.386  0.00  0.00    +0.440 HD
ATOM      9  C   LIG    1       11.777  64.872  27.060  0.00  0.00    -0.020 A 
BRANCH   3  10
ATOM     10  C   LIG    1       10.286  66.877  27.332  0.00  0.00    +0.120 C 
BRANCH  10  11
ATOM     11  C   LIG    1        9.852  67.337  28.726  0.00  0.00    +0.190 C 
BRANCH  11  13
ATOM     12  C   LIG    1       10.633  69.054  30.205  0.00  0.00    +0.230 C 
ATOM     13  O   LIG    1       10.968  67.919  29.404  0.00  0.00    -0.390 OA
ENDBRANCH  11  13
ENDBRANCH  10  11
ENDBRANCH   3  10
ENDBRANCH   1   7
BRANCH   1  14
ATOM     14  C   LIG    1       13.338  61.566  26.375  0.00  0.00    +0.300 C 
ATOM     15  C   LIG    1       14.035  60.754  27.468  0.00  0.00    +0.060 C 
BRANCH  14  16
ATOM     16  C   LIG    1       14.150  61.504  25.107  0.00  0.00    -0.120 A 
ATOM     17  C   LIG    1       13.756  62.226  23.996  0.00  0.00    +0.000 A 
ATOM     18  C   LIG    1       14.502  62.167  22.836  0.00  0.00    +0.030 A 
ATOM     19  C   LIG    1       15.645  61.388  22.780  0.00  0.00    -0.080 A 
ATOM     20  C   LIG    1       16.620  61.157  21.647  0.00  0.00    +0.080 C 
ATOM     21  C   LIG    1       17.883  60.570  22.313  0.00  0.00    +0.040 C 
ATOM     22  C   LIG    1       17.308  59.900  23.579  0.00  0.00    +0.080 C 
ATOM     23  C   LIG    1       16.040  60.665  23.891  0.00  0.00    -0.080 A 
ATOM     24  C   LIG    1       15.293  60.729  25.056  0.00  0.00    +0.040 A 
ENDBRANCH  14  16
ENDBRANCH   1  14
TORSDOF 6
ENDMDL
MODEL 
REMARK VINA RESULT:    -8.970      0.000      0.000
REMARK INTER + INTRA:         -11.840
REMARK INTER:                 -11.406
REMARK INTRA:                  -0.433
REMARK UNBOUND:                -0.248
REMARK  Name = ZINC000072703763
REMARK                            x       y       z     vdW  Elec       q    Type
REMARK                         _______ _______ _______ _____ _____    ______ ____
ROOT
ATOM      1  C   LIG    1       12.744  63.413  25.966  0.00  0.00    +0.560 C 
ATOM      2  N   LIG    1       12.659  62.290  25.225  0.00  0.00    -0.630 N 
ATOM      3  H   LIG    1       11.824  61.798  25.184  0.00  0.00    +0.420 HD
ATOM      4  O   LIG    1       13.791  64.029  26.016  0.00  0.00    -0.490 OA
ENDROOT
BRANCH   2   5
ATOM      5  C   LIG    1       13.765  61.839  24.519  0.00  0.00    +0.060 A 
ATOM      6  C   LIG    1       14.764  61.074  25.048  0.00  0.00    -0.120 A 
ATOM      7  C   LIG    1       15.805  60.739  24.091  0.00  0.00    -0.040 A 
ATOM      8  C   LIG    1       15.569  61.257  22.883  0.00  0.00    -0.240 A 
ATOM      9  C   LIG    1       16.469  61.098  21.674  0.00  0.00    +0.120 C 
ATOM     10  C   LIG    1       16.868  59.632  21.509  0.00  0.00    +0.020 C 
ATOM     11  C   LIG    1       18.155  59.370  22.287  0.00  0.00    +0.000 C 
ATOM     12  C   LIG    1       18.188  60.240  23.542  0.00  0.00    +0.030 C 
ATOM     13  C   LIG    1       17.010  59.883  24.444  0.00  0.00    +0.090 C 
ATOM     14  S   LIG    1       14.058  62.157  22.873  0.00  0.00    +0.320 S 
BRANCH   6  15
ATOM     15  C   LIG    1       14.783  60.643  26.414  0.00  0.00    +0.270 C 
ATOM     16  N   LIG    1       14.799  60.303  27.498  0.00  0.00    -0.420 NA
ENDBRANCH   6  15
ENDBRANCH   2   5
BRANCH   1  21
ATOM     17  C   LIG    1       10.321  65.695  27.704  0.00  0.00    -0.100 A 
ATOM     18  C   LIG    1        9.359  64.795  28.124  0.00  0.00    +0.070 A 
ATOM     19  C   LIG    1        9.493  63.446  27.845  0.00  0.00    +0.020 A 
ATOM     20  C   LIG    1       10.590  62.991  27.144  0.00  0.00    +0.050 A 
ATOM     21  C   LIG    1       11.566  63.893  26.717  0.00  0.00    -0.140 A 
ATOM     22  C   LIG    1       11.422  65.253  26.998  0.00  0.00    +0.110 A 
BRANCH  17  23
ATOM     23  C   LIG    1       10.165  67.162  28.014  0.00  0.00    +0.220 C 
BRANCH  23  25
ATOM     24  C   LIG    1       10.506  68.620  29.885  0.00  0.00    +0.200 C 
ATOM     25  O   LIG    1       10.984  67.501  29.134  0.00  0.00    -0.390 OA
ENDBRANCH  23  25
ENDBRANCH  17  23
ENDBRANCH   1  21
TORSDOF 5
ENDMDL
MODEL 
REMARK VINA RESULT:    -6.785      0.000      0.000
REMARK INTER + INTRA:         -10.856
REMARK INTER:                 -10.509
REMARK INTRA:                  -0.347
REMARK UNBOUND:                -0.700
REMARK  Name = ZINC001131979293
REMARK                            x       y       z     vdW  Elec       q    Type
REMARK                         _______ _______ _______ _____ _____    ______ ____
ROOT
ATOM      1  C   LIG    1        9.922  68.460  29.365  0.00  0.00    +0.520 C 
ATOM      2  N   LIG    1       10.769  68.779  30.363  0.00  0.00    -0.740 N 
ATOM      3  H   LIG    1       11.315  68.091  30.775  0.00  0.00    +0.410 HD
ATOM      4  O   LIG    1        9.239  69.319  28.850  0.00  0.00    -0.520 OA
ENDROOT
BRANCH   1   5
ATOM      5  C   LIG    1        9.826  67.033  28.887  0.00  0.00    +0.070 C 
BRANCH   5   6
ATOM      6  C   LIG    1       10.118  66.978  27.386  0.00  0.00    +0.100 C 
BRANCH   6  12
ATOM      7  C   LIG    1       14.187  64.250  26.360  0.00  0.00    +0.090 C 
ATOM      8  C   LIG    1       12.696  64.348  26.553  0.00  0.00    -0.080 A 
ATOM      9  C   LIG    1       11.906  63.221  26.419  0.00  0.00    +0.000 A 
ATOM     10  C   LIG    1       10.539  63.310  26.597  0.00  0.00    +0.010 A 
ATOM     11  C   LIG    1        9.960  64.526  26.909  0.00  0.00    +0.000 A 
ATOM     12  C   LIG    1       10.749  65.652  27.045  0.00  0.00    -0.090 A 
ATOM     13  C   LIG    1       12.117  65.563  26.872  0.00  0.00    +0.000 A 
ENDBRANCH   6  12
ENDBRANCH   5   6
ENDBRANCH   1   5
BRANCH   2  14
ATOM     14  C   LIG    1       10.863  70.165  30.828  0.00  0.00    +0.270 C 
BRANCH  14  15
ATOM     15  C   LIG    1       12.172  70.358  31.596  0.00  0.00    +0.260 C 
BRANCH  15  16
ATOM     16  N   LIG    1       12.972  71.404  30.944  0.00  0.00    -0.500 N 
ATOM     17  H   LIG    1       12.492  71.730  30.119  0.00  0.00    +0.440 HD
ATOM     18  H   LIG    1       13.871  71.027  30.684  0.00  0.00    +0.430 HD
BRANCH  16  19
ATOM     19  C   LIG    1       13.163  72.525  31.874  0.00  0.00    +0.290 C 
BRANCH  19  20
ATOM     20  C   LIG    1       13.826  73.691  31.138  0.00  0.00    +0.210 C 
BRANCH  20  21
ATOM     21  O   LIG    1       13.799  73.443  29.731  0.00  0.00    -0.580 OA
ATOM     22  H   LIG    1       13.393  74.153  29.214  0.00  0.00    +0.410 HD
ENDBRANCH  20  21
ENDBRANCH  19  20
ENDBRANCH  16  19
ENDBRANCH  15  16
ENDBRANCH  14  15
ENDBRANCH   2  14
TORSDOF 9
ENDMDL
MODEL 
REMARK VINA RESULT:    -7.693      0.000      0.000
REMARK INTER + INTRA:         -11.514
REMARK INTER:                 -10.384
REMARK INTRA:                  -1.130
REMARK UNBOUND:                -0.672
REMARK  Name = ZINC001567028422
REMARK                            x       y       z     vdW  Elec       q    Type
REMARK                         _______ _______ _______ _____ _____    ______ ____
ROOT
ATOM      1  C   LIG    1       15.668  58.169  28.334  0.00  0.00    +0.110 C 
ATOM      2  C   LIG    1       14.933  59.262  27.555  0.00  0.00    +0.170 C 
ENDROOT
BRANCH   2   3
ATOM      3  N   LIG    1       15.911  60.107  26.858  0.00  0.00    -0.510 N 
ATOM      4  H   LIG    1       16.729  60.222  27.437  0.00  0.00    +0.430 HD
ATOM      5  H   LIG    1       15.502  61.010  26.671  0.00  0.00    +0.420 HD
BRANCH   3   6
ATOM      6  C   LIG    1       16.293  59.471  25.590  0.00  0.00    +0.320 C 
BRANCH   6   7
ATOM      7  C   LIG    1       15.836  60.330  24.439  0.00  0.00    -0.160 A 
ATOM      8  C   LIG    1       14.566  60.873  24.442  0.00  0.00    +0.050 A 
ATOM      9  C   LIG    1       14.148  61.661  23.386  0.00  0.00    +0.020 A 
ATOM     10  C   LIG    1       15.001  61.907  22.326  0.00  0.00    +0.060 A 
ATOM     11  C   LIG    1       16.274  61.366  22.324  0.00  0.00    +0.020 A 
ATOM     12  C   LIG    1       16.692  60.581  23.383  0.00  0.00    -0.020 A 
BRANCH  12  13
ATOM     13  C   LIG    1       18.079  59.989  23.380  0.00  0.00    -0.050 C 
ATOM     14  C   LIG    1       18.353  58.836  22.412  0.00  0.00    +0.060 C 
ATOM     15  C   LIG    1       18.943  60.221  22.137  0.00  0.00    +0.040 C 
ENDBRANCH  12  13
ENDBRANCH   6   7
ENDBRANCH   3   6
ENDBRANCH   2   3
BRANCH   2  16
ATOM     16  C   LIG    1       14.117  60.119  28.525  0.00  0.00    +0.310 C 
BRANCH  16  17
ATOM     17  N   LIG    1       13.729  61.367  27.865  0.00  0.00    -0.750 N 
ATOM     18  H   LIG    1       14.354  62.107  27.817  0.00  0.00    +0.400 HD
ATOM     19  C   LIG    1       12.501  61.489  27.322  0.00  0.00    +0.520 C 
ATOM     20  O   LIG    1       11.717  60.566  27.381  0.00  0.00    -0.490 OA
BRANCH  19  21
ATOM     21  C   LIG    1       12.101  62.774  26.642  0.00  0.00    +0.100 C 
ATOM     22  C   LIG    1       11.120  63.576  27.533  0.00  0.00    +0.040 C 
ATOM     23  C   LIG    1       11.303  65.027  27.021  0.00  0.00    +0.030 C 
ATOM     24  C   LIG    1       12.814  65.138  26.729  0.00  0.00    +0.030 C 
ATOM     25  F   LIG    1       11.528  62.508  25.394  0.00  0.00    -0.190 F 
ATOM     26  C   LIG    1       13.321  63.706  26.488  0.00  0.00    +0.050 C 
ENDBRANCH  19  21
ENDBRANCH  16  17
ENDBRANCH   2  16
TORSDOF 7
ENDMDL
MODEL 
REMARK VINA RESULT:    -7.647      0.000      0.000
REMARK INTER + INTRA:          -9.187
REMARK INTER:                  -8.981
REMARK INTRA:                  -0.205
REMARK UNBOUND:                -0.199
REMARK  Name = ZINC001125457812
REMARK                            x       y       z     vdW  Elec       q    Type
REMARK                         _______ _______ _______ _____ _____    ______ ____
ROOT
ATOM      1  N   LIG    1       14.212  61.691  24.735  0.00  0.00    -0.720 N 
ATOM      2  H   LIG    1       14.009  62.242  23.962  0.00  0.00    +0.400 HD
ATOM      3  C   LIG    1       14.110  62.207  25.975  0.00  0.00    +0.550 C 
ATOM      4  O   LIG    1       14.364  61.516  26.944  0.00  0.00    -0.520 OA
ENDROOT
BRANCH   3   5
ATOM      5  C   LIG    1       13.691  63.607  26.159  0.00  0.00    -0.020 C 
ATOM      6  C   LIG    1       12.493  63.882  26.669  0.00  0.00    -0.060 C 
ATOM      7  C   LIG    1       11.454  62.874  27.115  0.00  0.00    +0.100 C 
ATOM      8  C   LIG    1       10.240  63.678  27.622  0.00  0.00    +0.010 C 
ATOM      9  C   LIG    1       10.381  65.048  26.911  0.00  0.00    +0.030 C 
ATOM     10  C   LIG    1       11.917  65.265  26.919  0.00  0.00    +0.070 C 
ATOM     11  F   LIG    1       14.524  64.612  25.809  0.00  0.00    -0.140 F 
ENDBRANCH   3   5
BRANCH   1  12
ATOM     12  C   LIG    1       14.629  60.299  24.552  0.00  0.00    +0.260 C 
BRANCH  12  18
ATOM     13  C   LIG    1       18.061  61.389  22.151  0.00  0.00    +0.010 C 
ATOM     14  C   LIG    1       18.192  60.192  23.094  0.00  0.00    -0.020 C 
ATOM     15  C   LIG    1       18.045  58.895  22.296  0.00  0.00    +0.000 C 
ATOM     16  C   LIG    1       16.672  58.865  21.620  0.00  0.00    +0.010 C 
ATOM     17  C   LIG    1       15.578  58.934  22.687  0.00  0.00    +0.010 C 
ATOM     18  C   LIG    1       15.725  60.230  23.486  0.00  0.00    -0.020 C 
ATOM     19  C   LIG    1       17.096  60.260  24.161  0.00  0.00    +0.030 C 
ENDBRANCH  12  18
ENDBRANCH   1  12
TORSDOF 3
ENDMDL
MODEL 
REMARK VINA RESULT:    -7.305      0.000      0.000
REMARK INTER + INTRA:         -10.989
REMARK INTER:                  -9.907
REMARK INTRA:                  -1.082
REMARK UNBOUND:                -1.122
REMARK  Name = ZINC000339421402
REMARK                            x       y       z     vdW  Elec       q    Type
REMARK                         _______ _______ _______ _____ _____    ______ ____
ROOT
ATOM      1  C   LIG    1       15.007  61.547  22.578  0.00  0.00    +0.520 C 
ATOM      2  N   LIG    1       15.138  61.403  23.912  0.00  0.00    -0.730 N 
ATOM      3  H   LIG    1       15.995  61.148  24.290  0.00  0.00    +0.400 HD
ATOM      4  O   LIG    1       13.936  61.865  22.105  0.00  0.00    -0.530 OA
ENDROOT
BRANCH   2   5
ATOM      5  C   LIG    1       13.988  61.631  24.790  0.00  0.00    +0.320 C 
ATOM      6  C   LIG    1       13.963  63.098  25.239  0.00  0.00    +0.030 C 
ATOM      7  C   LIG    1       12.932  63.272  26.356  0.00  0.00    -0.050 C 
ATOM      8  C   LIG    1       13.434  62.580  27.629  0.00  0.00    +0.150 C 
ATOM      9  C   LIG    1       13.862  61.178  27.274  0.00  0.00    -0.010 A 
ATOM     10  O   LIG    1       14.065  60.148  28.104  0.00  0.00    -0.170 OA
ATOM     11  C   LIG    1       14.435  59.068  27.393  0.00  0.00    -0.030 A 
ATOM     12  C   LIG    1       14.756  57.708  27.959  0.00  0.00    +0.180 C 
ATOM     13  C   LIG    1       14.472  59.406  26.089  0.00  0.00    -0.040 A 
ATOM     14  C   LIG    1       11.604  62.645  25.926  0.00  0.00    +0.030 C 
ATOM     15  C   LIG    1       12.725  64.763  26.633  0.00  0.00    +0.040 C 
ATOM     16  C   LIG    1       14.104  60.761  26.014  0.00  0.00    -0.190 A 
ENDBRANCH   2   5
BRANCH   1  17
ATOM     17  C   LIG    1       16.190  61.313  21.674  0.00  0.00    +0.070 C 
BRANCH  17  18
ATOM     18  C   LIG    1       16.957  60.078  22.150  0.00  0.00    +0.210 C 
BRANCH  18  20
ATOM     19  C   LIG    1       18.852  61.610  21.995  0.00  0.00    +0.020 C 
ATOM     20  C   LIG    1       18.434  60.381  22.167  0.00  0.00    -0.150 C 
ATOM     21  C   LIG    1       19.428  59.269  22.380  0.00  0.00    +0.080 C 
ENDBRANCH  18  20
BRANCH  18  22
ATOM     22  O   LIG    1       16.705  58.989  21.259  0.00  0.00    -0.370 OA
BRANCH  22  23
ATOM     23  C   LIG    1       15.788  58.020  21.771  0.00  0.00    +0.150 C 
ATOM     24  C   LIG    1       16.081  57.773  23.251  0.00  0.00    +0.040 C 
ENDBRANCH  22  23
ENDBRANCH  18  22
ENDBRANCH  17  18
ENDBRANCH   1  17
TORSDOF 6
ENDMDL
MODEL 
REMARK VINA RESULT:    -7.173      0.000      0.000
REMARK INTER + INTRA:         -10.930
REMARK INTER:                 -10.318
REMARK INTRA:                  -0.612
REMARK UNBOUND:                -0.613
REMARK  Name = ZINC000426166337
REMARK                            x       y       z     vdW  Elec       q    Type
REMARK                         _______ _______ _______ _____ _____    ______ ____
ROOT
ATOM      1  C   LIG    1       13.999  61.637  26.248  0.00  0.00    +0.230 C 
ENDROOT
BRANCH   1   8
ATOM      2  C   LIG    1       15.711  60.710  24.668  0.00  0.00    +0.110 A 
ATOM      3  C   LIG    1       16.243  60.573  23.394  0.00  0.00    -0.060 A 
ATOM      4  C   LIG    1       15.645  61.215  22.325  0.00  0.00    +0.040 A 
ATOM      5  C   LIG    1       14.520  61.992  22.526  0.00  0.00    +0.030 A 
ATOM      6  C   LIG    1       13.989  62.130  23.795  0.00  0.00    +0.060 A 
ATOM      7 CL   LIG    1       17.656  59.597  23.141  0.00  0.00    -0.060 Cl
ATOM      8  C   LIG    1       14.579  61.486  24.865  0.00  0.00    -0.090 A 
BRANCH   2   9
ATOM      9  O   LIG    1       16.297  60.080  25.721  0.00  0.00    -0.320 OA
BRANCH   9  11
ATOM     10  C   LIG    1       15.846  58.516  27.508  0.00  0.00    +0.060 C 
ATOM     11  C   LIG    1       15.871  58.743  25.995  0.00  0.00    +0.170 C 
ENDBRANCH   9  11
ENDBRANCH   2   9
ENDBRANCH   1   8
BRANCH   1  12
ATOM     12  N   LIG    1       12.929  62.644  26.222  0.00  0.00    -0.530 NA
ATOM     13  C   LIG    1       13.306  63.833  26.998  0.00  0.00    +0.180 C 
ATOM     14  C   LIG    1       12.237  64.913  26.830  0.00  0.00    +0.020 C 
ATOM     15  C   LIG    1       10.889  64.371  27.315  0.00  0.00    -0.020 C 
ATOM     16  C   LIG    1       10.542  63.107  26.524  0.00  0.00    +0.030 C 
ATOM     17  C   LIG    1       11.661  62.077  26.701  0.00  0.00    +0.160 C 
BRANCH  15  18
ATOM     18  C   LIG    1        9.804  65.426  27.093  0.00  0.00    +0.020 C 
BRANCH  18  19
ATOM     19  C   LIG    1       10.388  66.819  27.341  0.00  0.00    +0.020 C 
BRANCH  19  20
ATOM     20  C   LIG    1        9.939  67.324  28.713  0.00  0.00    +0.150 C 
BRANCH  20  21
ATOM     21  O   LIG    1       11.073  67.810  29.436  0.00  0.00    -0.580 OA
ATOM     22  H   LIG    1       10.895  68.603  29.959  0.00  0.00    +0.380 HD
ENDBRANCH  20  21
ENDBRANCH  19  20
ENDBRANCH  18  19
ENDBRANCH  15  18
ENDBRANCH   1  12
TORSDOF 8
ENDMDL
MODEL 
REMARK VINA RESULT:    -7.669      0.000      0.000
REMARK INTER + INTRA:         -10.453
REMARK INTER:                  -9.943
REMARK INTRA:                  -0.510
REMARK UNBOUND:                -0.542
REMARK  Name = ZINC000097404350
REMARK                            x       y       z     vdW  Elec       q    Type
REMARK                         _______ _______ _______ _____ _____    ______ ____
ROOT
ATOM      1  C   LIG    1       13.134  63.920  27.111  0.00  0.00    +0.550 C 
ATOM      2  O   LIG    1       14.181  64.518  27.277  0.00  0.00    -0.460 OA
ENDROOT
BRANCH   1   6
ATOM      3  C   LIG    1       10.402  66.269  27.342  0.00  0.00    +0.030 A 
ATOM      4  C   LIG    1        9.714  65.179  26.939  0.00  0.00    -0.030 A 
ATOM      5  C   LIG    1       10.641  64.136  26.793  0.00  0.00    +0.070 A 
ATOM      6  C   LIG    1       11.865  64.650  27.119  0.00  0.00    -0.060 A 
ATOM      7  O   LIG    1       11.698  65.949  27.444  0.00  0.00    -0.140 OA
BRANCH   3   8
ATOM      8  C   LIG    1        9.809  67.627  27.624  0.00  0.00    +0.310 C 
BRANCH   8  10
ATOM      9  C   LIG    1        9.253  69.000  29.509  0.00  0.00    +0.220 C 
ATOM     10  O   LIG    1       10.137  68.022  28.958  0.00  0.00    -0.380 OA
ENDBRANCH   8  10
ENDBRANCH   3   8
ENDBRANCH   1   6
BRANCH   1  11
ATOM     11  O   LIG    1       13.144  62.585  26.917  0.00  0.00    -0.280 OA
BRANCH  11  12
ATOM     12  C   LIG    1       13.781  62.103  25.818  0.00  0.00    +0.100 A 
ATOM     13  C   LIG    1       14.861  61.245  25.962  0.00  0.00    +0.030 A 
ATOM     14  C   LIG    1       15.507  60.756  24.843  0.00  0.00    -0.050 A 
ATOM     15  C   LIG    1       15.078  61.122  23.580  0.00  0.00    -0.040 A 
ATOM     16  C   LIG    1       14.001  61.978  23.434  0.00  0.00    -0.060 A 
ATOM     17  C   LIG    1       13.535  62.376  22.057  0.00  0.00    +0.120 C 
ATOM     18 CL   LIG    1       15.892  60.506  22.175  0.00  0.00    -0.050 Cl
ATOM     19  C   LIG    1       16.680  59.822  24.999  0.00  0.00    +0.110 C 
ATOM     20  C   LIG    1       13.349  62.466  24.551  0.00  0.00    +0.030 A 
ENDBRANCH  11  12
ENDBRANCH   1  11
TORSDOF 5
ENDMDL
MODEL 
REMARK VINA RESULT:    -7.146      0.000      0.000
REMARK INTER + INTRA:          -9.460
REMARK INTER:                  -9.134
REMARK INTRA:                  -0.326
REMARK UNBOUND:                -1.061
REMARK  Name = ZINC000447572580
REMARK                            x       y       z     vdW  Elec       q    Type
REMARK                         _______ _______ _______ _____ _____    ______ ____
ROOT
ATOM      1  C   LIG    1       14.363  62.339  24.037  0.00  0.00    +0.100 C 
ATOM      2  C   LIG    1       14.159  61.161  24.994  0.00  0.00    +0.180 C 
ENDROOT
BRANCH   2   3
ATOM      3  C   LIG    1       14.289  61.650  26.438  0.00  0.00    +0.020 C 
ATOM      4  C   LIG    1       13.858  60.547  27.434  0.00  0.00    +0.250 C 
ATOM      5  O   LIG    1       12.467  60.839  27.650  0.00  0.00    -0.290 OA
ATOM      6  C   LIG    1       12.254  62.170  27.463  0.00  0.00    +0.110 A 
ATOM      7  C   LIG    1       11.198  62.974  27.886  0.00  0.00    +0.010 A 
ATOM      8  C   LIG    1       11.178  64.317  27.573  0.00  0.00    +0.070 A 
ATOM      9  C   LIG    1       12.205  64.878  26.837  0.00  0.00    +0.000 A 
ATOM     10  C   LIG    1       13.260  64.087  26.416  0.00  0.00    +0.070 A 
ATOM     11  C   LIG    1       13.284  62.747  26.731  0.00  0.00    -0.180 A 
ENDBRANCH   2   3
BRANCH   2  12
ATOM     12  N   LIG    1       15.177  60.136  24.730  0.00  0.00    -0.510 N 
ATOM     13  H   LIG    1       14.725  59.249  24.560  0.00  0.00    +0.420 HD
ATOM     14  H   LIG    1       15.787  60.054  25.530  0.00  0.00    +0.430 HD
BRANCH  12  15
ATOM     15  C   LIG    1       15.965  60.519  23.551  0.00  0.00    +0.170 C 
ATOM     16  C   LIG    1       17.478  60.344  23.831  0.00  0.00    +0.050 C 
ATOM     17  C   LIG    1       18.072  60.186  22.409  0.00  0.00    -0.060 C 
ATOM     18  C   LIG    1       17.023  59.346  21.652  0.00  0.00    +0.040 C 
ATOM     19  C   LIG    1       19.412  59.449  22.467  0.00  0.00    +0.040 C 
ATOM     20  C   LIG    1       18.244  61.554  21.746  0.00  0.00    +0.040 C 
ATOM     21  C   LIG    1       15.681  59.560  22.377  0.00  0.00    -0.010 C 
ATOM     22  C   LIG    1       15.153  58.225  22.907  0.00  0.00    +0.030 C 
ENDBRANCH  12  15
ENDBRANCH   2  12
TORSDOF 3
ENDMDL
MODEL 
REMARK VINA RESULT:    -8.119      0.000      0.000
REMARK INTER + INTRA:         -11.249
REMARK INTER:                 -10.518
REMARK INTRA:                  -0.731
REMARK UNBOUND:                -0.757
REMARK  Name = ZINC000878308328
REMARK                            x       y       z     vdW  Elec       q    Type
REMARK                         _______ _______ _______ _____ _____    ______ ____
ROOT
ATOM      1  C   LIG    1       14.050  60.388  25.693  0.00  0.00    +0.250 C 
ENDROOT
BRANCH   1   2
ATOM      2  N   LIG    1       15.335  59.684  25.579  0.00  0.00    -0.390 N 
ATOM      3  C   LIG    1       15.579  58.893  26.804  0.00  0.00    +0.260 C 
ATOM      4  C   LIG    1       15.080  57.468  26.461  0.00  0.00    +0.080 C 
ATOM      5  C   LIG    1       15.504  57.337  24.974  0.00  0.00    +0.090 C 
ATOM      6  C   LIG    1       15.296  58.763  24.430  0.00  0.00    +0.230 C 
ATOM      7  H   LIG    1       16.080  60.354  25.453  0.00  0.00    +0.420 HD
BRANCH   6   8
ATOM      8  C   LIG    1       16.397  59.107  23.460  0.00  0.00    -0.200 A 
ATOM      9  C   LIG    1       17.393  60.000  23.817  0.00  0.00    +0.110 A 
ATOM     10  C   LIG    1       18.386  60.286  22.891  0.00  0.00    -0.010 A 
ATOM     11  C   LIG    1       18.350  59.675  21.653  0.00  0.00    +0.300 A 
ATOM     12  N   LIG    1       17.385  58.828  21.348  0.00  0.00    -0.470 NA
ATOM     13  C   LIG    1       16.428  58.529  22.203  0.00  0.00    +0.250 A 
ENDBRANCH   6   8
ENDBRANCH   1   2
BRANCH   1  14
ATOM     14  C   LIG    1       14.116  61.700  24.908  0.00  0.00    +0.100 C 
BRANCH  14  18
ATOM     15  C   LIG    1       11.729  64.656  26.869  0.00  0.00    -0.120 A 
ATOM     16  C   LIG    1       11.142  63.479  26.401  0.00  0.00    +0.050 A 
ATOM     17  C   LIG    1       11.918  62.529  25.769  0.00  0.00    +0.010 A 
ATOM     18  C   LIG    1       13.275  62.742  25.599  0.00  0.00    -0.080 A 
ATOM     19  C   LIG    1       13.862  63.906  26.060  0.00  0.00    +0.020 A 
ATOM     20  C   LIG    1       13.097  64.866  26.688  0.00  0.00    +0.090 A 
BRANCH  15  24
ATOM     21  N   LIG    1        9.876  65.302  28.334  0.00  0.00    -0.850 N 
ATOM     22  H   LIG    1        9.676  64.360  28.452  0.00  0.00    +0.400 HD
ATOM     23  H   LIG    1        9.334  65.972  28.779  0.00  0.00    +0.410 HD
ATOM     24  C   LIG    1       10.903  65.678  27.547  0.00  0.00    +0.560 C 
ATOM     25  O   LIG    1       11.151  66.858  27.395  0.00  0.00    -0.530 OA
ENDBRANCH  15  24
ENDBRANCH  14  18
ENDBRANCH   1  14
TORSDOF 5
ENDMDL
MODEL 
REMARK VINA RESULT:    -7.206      0.000      0.000
REMARK INTER + INTRA:         -10.690
REMARK INTER:                  -9.292
REMARK INTRA:                  -1.398
REMARK UNBOUND:                -0.535
REMARK  Name = ZINC000924617499
REMARK                            x       y       z     vdW  Elec       q    Type
REMARK                         _______ _______ _______ _____ _____    ______ ____
ROOT
ATOM      1  N   LIG    1       14.685  61.703  26.067  0.00  0.00    -0.510 N 
ATOM      2  H   LIG    1       15.614  61.847  25.699  0.00  0.00    +0.420 HD
ATOM      3  H   LIG    1       14.522  62.347  26.826  0.00  0.00    +0.430 HD
ENDROOT
BRANCH   1   4
ATOM      4  C   LIG    1       14.560  60.324  26.558  0.00  0.00    +0.220 C 
BRANCH   4   5
ATOM      5  C   LIG    1       15.870  59.573  26.310  0.00  0.00    +0.310 C 
BRANCH   5   7
ATOM      6  C   LIG    1       14.779  57.879  24.768  0.00  0.00    +0.300 C 
ATOM      7  N   LIG    1       15.806  58.895  25.013  0.00  0.00    -0.630 N 
BRANCH   7   8
ATOM      8  C   LIG    1       16.722  59.218  24.010  0.00  0.00    +0.190 A 
ATOM      9  C   LIG    1       16.767  58.469  22.841  0.00  0.00    -0.090 A 
ATOM     10  C   LIG    1       17.674  58.790  21.850  0.00  0.00    +0.060 A 
ATOM     11  C   LIG    1       18.538  59.857  22.021  0.00  0.00    -0.030 A 
ATOM     12  C   LIG    1       18.495  60.605  23.183  0.00  0.00    +0.060 A 
ATOM     13  C   LIG    1       17.587  60.292  24.175  0.00  0.00    -0.050 A 
ENDBRANCH   7   8
ENDBRANCH   5   7
ENDBRANCH   4   5
ENDBRANCH   1   4
BRANCH   1  14
ATOM     14  C   LIG    1       13.698  61.936  25.005  0.00  0.00    +0.220 C 
BRANCH  14  15
ATOM     15  C   LIG    1       12.801  63.115  25.391  0.00  0.00    -0.010 C 
ATOM     16  C   LIG    1       11.499  62.589  26.002  0.00  0.00    +0.020 C 
ATOM     17  C   LIG    1       10.645  63.776  26.455  0.00  0.00    +0.010 C 
ATOM     18  C   LIG    1       11.449  64.626  27.445  0.00  0.00    +0.220 C 
ATOM     19  O   LIG    1       12.661  65.057  26.823  0.00  0.00    -0.360 OA
ATOM     20  C   LIG    1       13.523  63.990  26.420  0.00  0.00    +0.210 C 
ENDBRANCH  14  15
BRANCH  14  21
ATOM     21  C   LIG    1       14.421  62.254  23.696  0.00  0.00    -0.030 C 
ATOM     22  C   LIG    1       14.336  61.217  22.572  0.00  0.00    +0.030 C 
ATOM     23  C   LIG    1       13.559  62.531  22.462  0.00  0.00    +0.060 C 
ENDBRANCH  14  21
ENDBRANCH   1  14
TORSDOF 7
ENDMDL
MODEL 
REMARK VINA RESULT:    -7.323      0.000      0.000
REMARK INTER + INTRA:         -11.785
REMARK INTER:                 -11.270
REMARK INTRA:                  -0.514
REMARK UNBOUND:                -0.609
REMARK  Name = ZINC001100590214
REMARK                            x       y       z     vdW  Elec       q    Type
REMARK                         _______ _______ _______ _____ _____    ______ ____
ROOT
ATOM      1  C   LIG    1       11.841  70.332  31.947  0.00  0.00    +0.010 C 
ATOM      2  C   LIG    1       13.128  71.083  31.569  0.00  0.00    +0.070 C 
ATOM      3  C   LIG    1       13.014  71.803  32.923  0.00  0.00    +0.150 C 
ATOM      4  C   LIG    1       11.502  71.529  32.851  0.00  0.00    +0.080 C 
ENDROOT
BRANCH   3   5
ATOM      5  N   LIG    1       13.357  73.229  32.863  0.00  0.00    -0.500 N 
ATOM      6  H   LIG    1       12.515  73.781  32.927  0.00  0.00    +0.430 HD
ATOM      7  H   LIG    1       13.822  73.427  31.990  0.00  0.00    +0.420 HD
BRANCH   5   8
ATOM      8  C   LIG    1       14.249  73.566  33.981  0.00  0.00    +0.370 C 
BRANCH   8   9
ATOM      9  C   LIG    1       15.672  73.623  33.488  0.00  0.00    -0.130 A 
ATOM     10  C   LIG    1       16.074  73.768  32.211  0.00  0.00    +0.230 A 
ATOM     11  N   LIG    1       17.415  73.771  32.196  0.00  0.00    -0.490 NA
ATOM     12  C   LIG    1       17.859  73.632  33.414  0.00  0.00    +0.460 A 
ATOM     13  N   LIG    1       16.804  73.542  34.253  0.00  0.00    -0.460 N 
ATOM     14  C   LIG    1       16.861  73.379  35.708  0.00  0.00    +0.330 C 
ENDBRANCH   8   9
ENDBRANCH   5   8
ENDBRANCH   3   5
BRANCH   1  15
ATOM     15  C   LIG    1       10.870  70.152  30.778  0.00  0.00    +0.280 C 
BRANCH  15  17
ATOM     16  C   LIG    1       10.153  68.370  29.281  0.00  0.00    +0.510 C 
ATOM     17  N   LIG    1       10.858  68.747  30.366  0.00  0.00    -0.740 N 
ATOM     18  H   LIG    1       11.357  68.088  30.873  0.00  0.00    +0.400 HD
ATOM     19  O   LIG    1        9.529  69.193  28.646  0.00  0.00    -0.530 OA
BRANCH  16  20
ATOM     20  C   LIG    1       10.140  66.924  28.856  0.00  0.00    +0.060 C 
BRANCH  20  21
ATOM     21  C   LIG    1        9.909  66.837  27.346  0.00  0.00    +0.050 C 
BRANCH  21  22
ATOM     22  C   LIG    1       10.007  65.378  26.898  0.00  0.00    +0.180 C 
BRANCH  22  25
ATOM     23  C   LIG    1       13.970  64.289  26.630  0.00  0.00    +0.190 C 
ATOM     24  C   LIG    1       12.553  64.678  26.726  0.00  0.00    -0.180 C 
ATOM     25  C   LIG    1       11.423  64.988  26.802  0.00  0.00    -0.200 C 
ENDBRANCH  22  25
ENDBRANCH  21  22
ENDBRANCH  20  21
ENDBRANCH  16  20
ENDBRANCH  15  17
ENDBRANCH   1  15
TORSDOF 9
ENDMDL
MODEL 
REMARK VINA RESULT:    -7.202      0.000      0.000
REMARK INTER + INTRA:          -9.710
REMARK INTER:                  -9.421
REMARK INTRA:                  -0.289
REMARK UNBOUND:                -0.403
REMARK  Name = ZINC000005458488
REMARK                            x       y       z     vdW  Elec       q    Type
REMARK                         _______ _______ _______ _____ _____    ______ ____
ROOT
ATOM      1  C   LIG    1       14.692  61.023  25.005  0.00  0.00    +0.270 A 
ATOM      2  N   LIG    1       14.079  62.142  25.237  0.00  0.00    -0.500 NA
ATOM      3  C   LIG    1       13.043  62.102  26.063  0.00  0.00    +0.130 A 
ATOM      4  C   LIG    1       12.752  60.889  26.565  0.00  0.00    -0.110 A 
ATOM      5  S   LIG    1       13.905  59.730  25.907  0.00  0.00    +0.200 S 
ENDROOT
BRANCH   3   6
ATOM      6  C   LIG    1       12.258  63.312  26.409  0.00  0.00    -0.030 A 
ATOM      7  C   LIG    1       12.907  64.526  26.632  0.00  0.00    +0.030 A 
ATOM      8  C   LIG    1       12.172  65.648  26.955  0.00  0.00    +0.010 A 
ATOM      9  C   LIG    1       10.795  65.572  27.058  0.00  0.00    -0.080 A 
ATOM     10  C   LIG    1       10.146  64.369  26.837  0.00  0.00    +0.000 A 
ATOM     11  C   LIG    1        9.998  66.801  27.411  0.00  0.00    +0.090 C 
ATOM     12  C   LIG    1       10.869  63.241  26.509  0.00  0.00    +0.050 A 
ENDBRANCH   3   6
BRANCH   1  14
ATOM     13  C   LIG    1       15.648  60.967  22.837  0.00  0.00    +0.510 C 
ATOM     14  N   LIG    1       15.793  60.867  24.173  0.00  0.00    -0.620 N 
ATOM     15  H   LIG    1       16.667  60.686  24.554  0.00  0.00    +0.430 HD
ATOM     16  O   LIG    1       14.556  61.194  22.361  0.00  0.00    -0.500 OA
BRANCH  13  17
ATOM     17  C   LIG    1       16.843  60.797  21.935  0.00  0.00    +0.070 C 
BRANCH  17  18
ATOM     18  C   LIG    1       17.159  59.308  21.783  0.00  0.00    +0.030 C 
BRANCH  18  20
ATOM     19  C   LIG    1       19.432  60.177  22.351  0.00  0.00    +0.030 C 
ATOM     20  C   LIG    1       18.476  58.991  22.494  0.00  0.00    -0.010 C 
ENDBRANCH  18  20
ENDBRANCH  17  18
ENDBRANCH  13  17
ENDBRANCH   1  14
TORSDOF 5
ENDMDL
MODEL 
REMARK VINA RESULT:    -6.090      0.000      0.000
REMARK INTER + INTRA:          -8.308
REMARK INTER:                  -8.039
REMARK INTRA:                  -0.269
REMARK UNBOUND:                -0.794
REMARK  Name = ZINC000418089189
REMARK                            x       y       z     vdW  Elec       q    Type
REMARK                         _______ _______ _______ _____ _____    ______ ____
ROOT
ATOM      1  N   LIG    1       14.859  61.851  24.524  0.00  0.00    -0.510 N 
ATOM      2  H   LIG    1       15.562  61.629  25.212  0.00  0.00    +0.430 HD
ATOM      3  H   LIG    1       14.871  62.843  24.340  0.00  0.00    +0.430 HD
ENDROOT
BRANCH   1   4
ATOM      4  C   LIG    1       13.537  61.462  25.031  0.00  0.00    +0.330 C 
BRANCH   4   9
ATOM      5 CL   LIG    1       10.859  66.235  27.511  0.00  0.00    -0.040 Cl
ATOM      6  C   LIG    1       11.633  64.856  26.794  0.00  0.00    -0.010 A 
ATOM      7  C   LIG    1       10.875  63.772  26.385  0.00  0.00    +0.040 A 
ATOM      8  C   LIG    1       11.492  62.675  25.815  0.00  0.00    +0.060 A 
ATOM      9  C   LIG    1       12.865  62.659  25.653  0.00  0.00    -0.170 A 
ATOM     10  C   LIG    1       13.622  63.741  26.060  0.00  0.00    +0.060 A 
ATOM     11  C   LIG    1       13.006  64.842  26.626  0.00  0.00    +0.040 A 
ENDBRANCH   4   9
ENDBRANCH   1   4
BRANCH   1  12
ATOM     12  C   LIG    1       15.142  61.120  23.281  0.00  0.00    +0.290 C 
BRANCH  12  13
ATOM     13  C   LIG    1       15.991  59.886  23.597  0.00  0.00    -0.030 C 
ATOM     14  C   LIG    1       16.984  59.991  24.756  0.00  0.00    +0.110 C 
ATOM     15  C   LIG    1       17.492  59.970  23.311  0.00  0.00    -0.210 C 
ATOM     16  C   LIG    1       18.542  59.237  22.475  0.00  0.00    +0.090 C 
ATOM     17  C   LIG    1       18.448  60.763  22.419  0.00  0.00    +0.080 C 
ENDBRANCH  12  13
ENDBRANCH   1  12
TORSDOF 4
ENDMDL
MODEL 
REMARK VINA RESULT:    -7.644      0.000      0.000
REMARK INTER + INTRA:         -11.677
REMARK INTER:                 -11.302
REMARK INTRA:                  -0.375
REMARK UNBOUND:                -0.458
REMARK  Name = ZINC001059400613
REMARK                            x       y       z     vdW  Elec       q    Type
REMARK                         _______ _______ _______ _____ _____    ______ ____
ROOT
ATOM      1  C   LIG    1       14.749  61.373  25.497  0.00  0.00    -0.010 C 
ATOM      2  C   LIG    1       14.390  62.042  24.144  0.00  0.00    +0.040 C 
ATOM      3  C   LIG    1       14.965  61.054  23.107  0.00  0.00    +0.240 C 
ATOM      4  N   LIG    1       15.085  59.747  23.769  0.00  0.00    -0.620 N 
ATOM      5  C   LIG    1       15.567  58.622  23.204  0.00  0.00    +0.560 C 
ATOM      6  O   LIG    1       15.621  57.594  23.850  0.00  0.00    -0.530 OA
ATOM      7  C   LIG    1       14.592  59.870  25.153  0.00  0.00    +0.260 C 
ENDROOT
BRANCH   5   8
ATOM      8  C   LIG    1       16.029  58.640  21.808  0.00  0.00    -0.090 C 
ATOM      9  C   LIG    1       17.279  58.997  21.526  0.00  0.00    +0.110 C 
BRANCH   9  10
ATOM     10  C   LIG    1       18.265  59.234  22.640  0.00  0.00    +0.000 C 
ATOM     11  C   LIG    1       19.681  59.661  22.251  0.00  0.00    +0.010 C 
ATOM     12  C   LIG    1       18.723  60.672  22.883  0.00  0.00    +0.030 C 
ENDBRANCH   9  10
ENDBRANCH   5   8
BRANCH   1  13
ATOM     13  C   LIG    1       13.767  61.790  26.593  0.00  0.00    +0.030 C 
BRANCH  13  14
ATOM     14  C   LIG    1       13.536  63.301  26.523  0.00  0.00    +0.250 C 
BRANCH  14  16
ATOM     15  C   LIG    1       11.700  64.868  26.853  0.00  0.00    +0.510 C 
ATOM     16  N   LIG    1       12.123  63.592  26.778  0.00  0.00    -0.740 N 
ATOM     17  H   LIG    1       11.491  62.864  26.891  0.00  0.00    +0.400 HD
ATOM     18  O   LIG    1       12.490  65.778  26.710  0.00  0.00    -0.540 OA
BRANCH  15  19
ATOM     19  C   LIG    1       10.247  65.168  27.115  0.00  0.00    +0.040 C 
BRANCH  19  20
ATOM     20  C   LIG    1       10.057  66.677  27.275  0.00  0.00    +0.030 C 
BRANCH  20  22
ATOM     21  C   LIG    1        9.395  68.373  28.987  0.00  0.00    +0.000 C 
ATOM     22  C   LIG    1       10.118  67.044  28.760  0.00  0.00    -0.010 C 
ENDBRANCH  20  22
ENDBRANCH  19  20
ENDBRANCH  15  19
ENDBRANCH  14  16
ENDBRANCH  13  14
ENDBRANCH   1  13
TORSDOF 8
ENDMDL
